.sub file Subbasin:27 Fri Feb 23 14:09:21 2007 AVSWATX2003 - SWAT interface MDL
    30.42100
Written by i_SWAT 2016-03-10 12:24:33
!!Climate
  42.373
 384.650
       3
       3
       3
       3
       3
is00027.wgn
0


   0.000   0.000   0.000   0.000   0.000   0.000   0.000   0.000   0.000   0.000

   0.000   0.000   0.000   0.000   0.000   0.000   0.000   0.000   0.000   0.000

   0.000   0.000   0.000   0.000   0.000   0.000   0.000   0.000   0.000   0.000
   0.000
   0.000
   0.000

  14.183
   0.002
  10.011
   0.500
   0.014

000000027.PND

000000027.WUS

   0.000

   0.000   0.000   0.000   0.000   0.000   0.000

   0.000   0.000   0.000   0.000   0.000   0.000

   0.000   0.000   0.000   0.000   0.000   0.000

   0.000   0.000   0.000   0.000   0.000   0.000

   0.000   0.000   0.000   0.000   0.000   0.000

   0.000   0.000   0.000   0.000   0.000   0.000

   0.000   0.000   0.000   0.000   0.000   0.000

   0.000   0.000   0.000   0.000   0.000   0.000

      36








02700001.hru 02700001.mgt is002608.sol is002608.chm 02700001.gw               
02700002.hru 02700002.mgt is002609.sol is002609.chm 02700002.gw               
02700003.hru 02700003.mgt is002610.sol is002610.chm 02700003.gw               
02700004.hru 02700004.mgt is002611.sol is002611.chm 02700004.gw               
02700005.hru 02700005.mgt is002612.sol is002612.chm 02700005.gw               
02700006.hru 02700006.mgt is002613.sol is002613.chm 02700006.gw               
02700007.hru 02700007.mgt is002614.sol is002614.chm 02700007.gw               
02700008.hru 02700008.mgt is002615.sol is002615.chm 02700008.gw               
02700009.hru 02700009.mgt is002616.sol is002616.chm 02700009.gw               
02700010.hru 02700010.mgt is002617.sol is002617.chm 02700010.gw               
02700011.hru 02700011.mgt is002618.sol is002618.chm 02700011.gw               
02700012.hru 02700012.mgt is002619.sol is002619.chm 02700012.gw               
02700013.hru 02700013.mgt is002620.sol is002620.chm 02700013.gw               
02700014.hru 02700014.mgt is002621.sol is002621.chm 02700014.gw               
02700015.hru 02700015.mgt is002622.sol is002622.chm 02700015.gw               
02700016.hru 02700016.mgt is002623.sol is002623.chm 02700016.gw               
02700017.hru 02700017.mgt is002624.sol is002624.chm 02700017.gw               
02700018.hru 02700018.mgt is002625.sol is002625.chm 02700018.gw               
02700019.hru 02700019.mgt is002626.sol is002626.chm 02700019.gw               
02700020.hru 02700020.mgt is002627.sol is002627.chm 02700020.gw               
02700021.hru 02700021.mgt is002628.sol is002628.chm 02700021.gw               
02700022.hru 02700022.mgt is002629.sol is002629.chm 02700022.gw               
02700023.hru 02700023.mgt is002630.sol is002630.chm 02700023.gw               
02700024.hru 02700024.mgt is002631.sol is002631.chm 02700024.gw               
02700025.hru 02700025.mgt is002632.sol is002632.chm 02700025.gw               
02700026.hru 02700026.mgt is002633.sol is002633.chm 02700026.gw               
02700027.hru 02700027.mgt is002634.sol is002634.chm 02700027.gw               
02700028.hru 02700028.mgt is002635.sol is002635.chm 02700028.gw               
02700029.hru 02700029.mgt is002636.sol is002636.chm 02700029.gw               
02700030.hru 02700030.mgt is002637.sol is002637.chm 02700030.gw               
02700031.hru 02700031.mgt is002638.sol is002638.chm 02700031.gw               
02700032.hru 02700032.mgt is002639.sol is002639.chm 02700032.gw               
02700033.hru 02700033.mgt is002640.sol is002640.chm 02700033.gw               
02700034.hru 02700034.mgt is002641.sol is002641.chm 02700034.gw               
02700035.hru 02700035.mgt is002642.sol is002642.chm 02700035.gw               
02700036.hru 02700036.mgt is002643.sol is002643.chm 02700036.gw               
