.sub file Subbasin:99 Fri Feb 23 14:09:30 2007 AVSWATX2003 - SWAT interface MDL
   136.24199
Written by i_SWAT 2016-03-10 12:26:28
!!Climate
  41.926
 378.250
       6
       6
       6
       6
       6
is00099.wgn
0


   0.000   0.000   0.000   0.000   0.000   0.000   0.000   0.000   0.000   0.000

   0.000   0.000   0.000   0.000   0.000   0.000   0.000   0.000   0.000   0.000

   0.000   0.000   0.000   0.000   0.000   0.000   0.000   0.000   0.000   0.000
   0.000
   0.000
   0.000

  34.563
   0.003
  24.614
   0.500
   0.014

000000099.PND

000000099.WUS

   0.000

   0.000   0.000   0.000   0.000   0.000   0.000

   0.000   0.000   0.000   0.000   0.000   0.000

   0.000   0.000   0.000   0.000   0.000   0.000

   0.000   0.000   0.000   0.000   0.000   0.000

   0.000   0.000   0.000   0.000   0.000   0.000

   0.000   0.000   0.000   0.000   0.000   0.000

   0.000   0.000   0.000   0.000   0.000   0.000

   0.000   0.000   0.000   0.000   0.000   0.000

      38








09900001.hru 09900001.mgt is001190.sol is001190.chm 09900001.gw               
09900002.hru 09900002.mgt is001191.sol is001191.chm 09900002.gw               
09900003.hru 09900003.mgt is001192.sol is001192.chm 09900003.gw               
09900004.hru 09900004.mgt is001193.sol is001193.chm 09900004.gw               
09900005.hru 09900005.mgt is001194.sol is001194.chm 09900005.gw               
09900006.hru 09900006.mgt is001195.sol is001195.chm 09900006.gw               
09900007.hru 09900007.mgt is001196.sol is001196.chm 09900007.gw               
09900008.hru 09900008.mgt is001197.sol is001197.chm 09900008.gw               
09900009.hru 09900009.mgt is001198.sol is001198.chm 09900009.gw               
09900010.hru 09900010.mgt is001199.sol is001199.chm 09900010.gw               
09900011.hru 09900011.mgt is001200.sol is001200.chm 09900011.gw               
09900012.hru 09900012.mgt is001201.sol is001201.chm 09900012.gw               
09900013.hru 09900013.mgt is001202.sol is001202.chm 09900013.gw               
09900014.hru 09900014.mgt is001203.sol is001203.chm 09900014.gw               
09900015.hru 09900015.mgt is001204.sol is001204.chm 09900015.gw               
09900016.hru 09900016.mgt is001205.sol is001205.chm 09900016.gw               
09900017.hru 09900017.mgt is001206.sol is001206.chm 09900017.gw               
09900018.hru 09900018.mgt is001207.sol is001207.chm 09900018.gw               
09900019.hru 09900019.mgt is001208.sol is001208.chm 09900019.gw               
09900020.hru 09900020.mgt is001209.sol is001209.chm 09900020.gw               
09900021.hru 09900021.mgt is001210.sol is001210.chm 09900021.gw               
09900022.hru 09900022.mgt is001211.sol is001211.chm 09900022.gw               
09900023.hru 09900023.mgt is001212.sol is001212.chm 09900023.gw               
09900024.hru 09900024.mgt is001213.sol is001213.chm 09900024.gw               
09900025.hru 09900025.mgt is001214.sol is001214.chm 09900025.gw               
09900026.hru 09900026.mgt is001215.sol is001215.chm 09900026.gw               
09900027.hru 09900027.mgt is001216.sol is001216.chm 09900027.gw               
09900028.hru 09900028.mgt is001217.sol is001217.chm 09900028.gw               
09900029.hru 09900029.mgt is001218.sol is001218.chm 09900029.gw               
09900030.hru 09900030.mgt is001219.sol is001219.chm 09900030.gw               
09900031.hru 09900031.mgt is001220.sol is001220.chm 09900031.gw               
09900032.hru 09900032.mgt is001221.sol is001221.chm 09900032.gw               
09900033.hru 09900033.mgt is001222.sol is001222.chm 09900033.gw               
09900034.hru 09900034.mgt is001223.sol is001223.chm 09900034.gw               
09900035.hru 09900035.mgt is001224.sol is001224.chm 09900035.gw               
09900036.hru 09900036.mgt is001225.sol is001225.chm 09900036.gw               
09900037.hru 09900037.mgt is001226.sol is001226.chm 09900037.gw               
09900038.hru 09900038.mgt is001227.sol is001227.chm 09900038.gw               
