.sub file Subbasin:96 Fri Feb 23 14:09:30 2007 AVSWATX2003 - SWAT interface MDL
   103.52497
Written by i_SWAT 2016-03-10 12:26:26
!!Climate
  42.001
 368.410
       6
       6
       6
       6
       6
is00096.wgn
0


   0.000   0.000   0.000   0.000   0.000   0.000   0.000   0.000   0.000   0.000

   0.000   0.000   0.000   0.000   0.000   0.000   0.000   0.000   0.000   0.000

   0.000   0.000   0.000   0.000   0.000   0.000   0.000   0.000   0.000   0.000
   0.000
   0.000
   0.000

  16.965
   0.004
  20.875
   0.500
   0.014

000000096.PND

000000096.WUS

   0.000

   0.000   0.000   0.000   0.000   0.000   0.000

   0.000   0.000   0.000   0.000   0.000   0.000

   0.000   0.000   0.000   0.000   0.000   0.000

   0.000   0.000   0.000   0.000   0.000   0.000

   0.000   0.000   0.000   0.000   0.000   0.000

   0.000   0.000   0.000   0.000   0.000   0.000

   0.000   0.000   0.000   0.000   0.000   0.000

   0.000   0.000   0.000   0.000   0.000   0.000

      29








09600001.hru 09600001.mgt is001228.sol is001228.chm 09600001.gw               
09600002.hru 09600002.mgt is001229.sol is001229.chm 09600002.gw               
09600003.hru 09600003.mgt is001230.sol is001230.chm 09600003.gw               
09600004.hru 09600004.mgt is001231.sol is001231.chm 09600004.gw               
09600005.hru 09600005.mgt is001232.sol is001232.chm 09600005.gw               
09600006.hru 09600006.mgt is001233.sol is001233.chm 09600006.gw               
09600007.hru 09600007.mgt is001234.sol is001234.chm 09600007.gw               
09600008.hru 09600008.mgt is001235.sol is001235.chm 09600008.gw               
09600009.hru 09600009.mgt is001236.sol is001236.chm 09600009.gw               
09600010.hru 09600010.mgt is001237.sol is001237.chm 09600010.gw               
09600011.hru 09600011.mgt is001238.sol is001238.chm 09600011.gw               
09600012.hru 09600012.mgt is001239.sol is001239.chm 09600012.gw               
09600013.hru 09600013.mgt is001240.sol is001240.chm 09600013.gw               
09600014.hru 09600014.mgt is001241.sol is001241.chm 09600014.gw               
09600015.hru 09600015.mgt is001242.sol is001242.chm 09600015.gw               
09600016.hru 09600016.mgt is001243.sol is001243.chm 09600016.gw               
09600017.hru 09600017.mgt is001244.sol is001244.chm 09600017.gw               
09600018.hru 09600018.mgt is001245.sol is001245.chm 09600018.gw               
09600019.hru 09600019.mgt is001246.sol is001246.chm 09600019.gw               
09600020.hru 09600020.mgt is001247.sol is001247.chm 09600020.gw               
09600021.hru 09600021.mgt is001248.sol is001248.chm 09600021.gw               
09600022.hru 09600022.mgt is001249.sol is001249.chm 09600022.gw               
09600023.hru 09600023.mgt is001250.sol is001250.chm 09600023.gw               
09600024.hru 09600024.mgt is001251.sol is001251.chm 09600024.gw               
09600025.hru 09600025.mgt is001252.sol is001252.chm 09600025.gw               
09600026.hru 09600026.mgt is001253.sol is001253.chm 09600026.gw               
09600027.hru 09600027.mgt is001254.sol is001254.chm 09600027.gw               
09600028.hru 09600028.mgt is001255.sol is001255.chm 09600028.gw               
09600029.hru 09600029.mgt is001256.sol is001256.chm 09600029.gw               
