.sub file Subbasin:39 Fri Feb 23 14:09:23 2007 AVSWATX2003 - SWAT interface MDL
    69.65900
Written by i_SWAT 2016-03-10 12:24:37
!!Climate
  42.233
 355.480
       6
       6
       6
       6
       6
is00039.wgn
0


   0.000   0.000   0.000   0.000   0.000   0.000   0.000   0.000   0.000   0.000

   0.000   0.000   0.000   0.000   0.000   0.000   0.000   0.000   0.000   0.000

   0.000   0.000   0.000   0.000   0.000   0.000   0.000   0.000   0.000   0.000
   0.000
   0.000
   0.000

  23.746
   0.002
  16.458
   0.500
   0.014

000000039.PND

000000039.WUS

   0.000

   0.000   0.000   0.000   0.000   0.000   0.000

   0.000   0.000   0.000   0.000   0.000   0.000

   0.000   0.000   0.000   0.000   0.000   0.000

   0.000   0.000   0.000   0.000   0.000   0.000

   0.000   0.000   0.000   0.000   0.000   0.000

   0.000   0.000   0.000   0.000   0.000   0.000

   0.000   0.000   0.000   0.000   0.000   0.000

   0.000   0.000   0.000   0.000   0.000   0.000

      42








03900001.hru 03900001.mgt is002268.sol is002268.chm 03900001.gw               
03900002.hru 03900002.mgt is002269.sol is002269.chm 03900002.gw               
03900003.hru 03900003.mgt is002270.sol is002270.chm 03900003.gw               
03900004.hru 03900004.mgt is002271.sol is002271.chm 03900004.gw               
03900005.hru 03900005.mgt is002272.sol is002272.chm 03900005.gw               
03900006.hru 03900006.mgt is002273.sol is002273.chm 03900006.gw               
03900007.hru 03900007.mgt is002274.sol is002274.chm 03900007.gw               
03900008.hru 03900008.mgt is002275.sol is002275.chm 03900008.gw               
03900009.hru 03900009.mgt is002276.sol is002276.chm 03900009.gw               
03900010.hru 03900010.mgt is002277.sol is002277.chm 03900010.gw               
03900011.hru 03900011.mgt is002278.sol is002278.chm 03900011.gw               
03900012.hru 03900012.mgt is002279.sol is002279.chm 03900012.gw               
03900013.hru 03900013.mgt is002280.sol is002280.chm 03900013.gw               
03900014.hru 03900014.mgt is002281.sol is002281.chm 03900014.gw               
03900015.hru 03900015.mgt is002282.sol is002282.chm 03900015.gw               
03900016.hru 03900016.mgt is002283.sol is002283.chm 03900016.gw               
03900017.hru 03900017.mgt is002284.sol is002284.chm 03900017.gw               
03900018.hru 03900018.mgt is002285.sol is002285.chm 03900018.gw               
03900019.hru 03900019.mgt is002286.sol is002286.chm 03900019.gw               
03900020.hru 03900020.mgt is002287.sol is002287.chm 03900020.gw               
03900021.hru 03900021.mgt is002288.sol is002288.chm 03900021.gw               
03900022.hru 03900022.mgt is002289.sol is002289.chm 03900022.gw               
03900023.hru 03900023.mgt is002290.sol is002290.chm 03900023.gw               
03900024.hru 03900024.mgt is002291.sol is002291.chm 03900024.gw               
03900025.hru 03900025.mgt is002292.sol is002292.chm 03900025.gw               
03900026.hru 03900026.mgt is002293.sol is002293.chm 03900026.gw               
03900027.hru 03900027.mgt is002294.sol is002294.chm 03900027.gw               
03900028.hru 03900028.mgt is002295.sol is002295.chm 03900028.gw               
03900029.hru 03900029.mgt is002296.sol is002296.chm 03900029.gw               
03900030.hru 03900030.mgt is002297.sol is002297.chm 03900030.gw               
03900031.hru 03900031.mgt is002298.sol is002298.chm 03900031.gw               
03900032.hru 03900032.mgt is002299.sol is002299.chm 03900032.gw               
03900033.hru 03900033.mgt is002300.sol is002300.chm 03900033.gw               
03900034.hru 03900034.mgt is002301.sol is002301.chm 03900034.gw               
03900035.hru 03900035.mgt is002302.sol is002302.chm 03900035.gw               
03900036.hru 03900036.mgt is002303.sol is002303.chm 03900036.gw               
03900037.hru 03900037.mgt is002304.sol is002304.chm 03900037.gw               
03900038.hru 03900038.mgt is002305.sol is002305.chm 03900038.gw               
03900039.hru 03900039.mgt is002306.sol is002306.chm 03900039.gw               
03900040.hru 03900040.mgt is002307.sol is002307.chm 03900040.gw               
03900041.hru 03900041.mgt is002308.sol is002308.chm 03900041.gw               
03900042.hru 03900042.mgt is002309.sol is002309.chm 03900042.gw               
