.sub file Subbasin:64 Fri Feb 23 14:09:26 2007 AVSWATX2003 - SWAT interface MDL
   138.25003
Written by i_SWAT 2016-03-10 12:26:10
!!Climate
  41.760
 366.250
       8
       8
       8
       8
       8
is00064.wgn
0


   0.000   0.000   0.000   0.000   0.000   0.000   0.000   0.000   0.000   0.000

   0.000   0.000   0.000   0.000   0.000   0.000   0.000   0.000   0.000   0.000

   0.000   0.000   0.000   0.000   0.000   0.000   0.000   0.000   0.000   0.000
   0.000
   0.000
   0.000

  32.348
   0.004
  24.831
   0.500
   0.014

000000064.PND

000000064.WUS

   0.000

   0.000   0.000   0.000   0.000   0.000   0.000

   0.000   0.000   0.000   0.000   0.000   0.000

   0.000   0.000   0.000   0.000   0.000   0.000

   0.000   0.000   0.000   0.000   0.000   0.000

   0.000   0.000   0.000   0.000   0.000   0.000

   0.000   0.000   0.000   0.000   0.000   0.000

   0.000   0.000   0.000   0.000   0.000   0.000

   0.000   0.000   0.000   0.000   0.000   0.000

      49








06400001.hru 06400001.mgt is000829.sol is000829.chm 06400001.gw               
06400002.hru 06400002.mgt is000830.sol is000830.chm 06400002.gw               
06400003.hru 06400003.mgt is000831.sol is000831.chm 06400003.gw               
06400004.hru 06400004.mgt is000832.sol is000832.chm 06400004.gw               
06400005.hru 06400005.mgt is000833.sol is000833.chm 06400005.gw               
06400006.hru 06400006.mgt is000834.sol is000834.chm 06400006.gw               
06400007.hru 06400007.mgt is000835.sol is000835.chm 06400007.gw               
06400008.hru 06400008.mgt is000836.sol is000836.chm 06400008.gw               
06400009.hru 06400009.mgt is000837.sol is000837.chm 06400009.gw               
06400010.hru 06400010.mgt is000838.sol is000838.chm 06400010.gw               
06400011.hru 06400011.mgt is000839.sol is000839.chm 06400011.gw               
06400012.hru 06400012.mgt is000840.sol is000840.chm 06400012.gw               
06400013.hru 06400013.mgt is000841.sol is000841.chm 06400013.gw               
06400014.hru 06400014.mgt is000842.sol is000842.chm 06400014.gw               
06400015.hru 06400015.mgt is000843.sol is000843.chm 06400015.gw               
06400016.hru 06400016.mgt is000844.sol is000844.chm 06400016.gw               
06400017.hru 06400017.mgt is000845.sol is000845.chm 06400017.gw               
06400018.hru 06400018.mgt is000846.sol is000846.chm 06400018.gw               
06400019.hru 06400019.mgt is000847.sol is000847.chm 06400019.gw               
06400020.hru 06400020.mgt is000848.sol is000848.chm 06400020.gw               
06400021.hru 06400021.mgt is000849.sol is000849.chm 06400021.gw               
06400022.hru 06400022.mgt is000850.sol is000850.chm 06400022.gw               
06400023.hru 06400023.mgt is000851.sol is000851.chm 06400023.gw               
06400024.hru 06400024.mgt is000852.sol is000852.chm 06400024.gw               
06400025.hru 06400025.mgt is000853.sol is000853.chm 06400025.gw               
06400026.hru 06400026.mgt is000854.sol is000854.chm 06400026.gw               
06400027.hru 06400027.mgt is000855.sol is000855.chm 06400027.gw               
06400028.hru 06400028.mgt is000856.sol is000856.chm 06400028.gw               
06400029.hru 06400029.mgt is000857.sol is000857.chm 06400029.gw               
06400030.hru 06400030.mgt is000858.sol is000858.chm 06400030.gw               
06400031.hru 06400031.mgt is000859.sol is000859.chm 06400031.gw               
06400032.hru 06400032.mgt is000860.sol is000860.chm 06400032.gw               
06400033.hru 06400033.mgt is000861.sol is000861.chm 06400033.gw               
06400034.hru 06400034.mgt is000862.sol is000862.chm 06400034.gw               
06400035.hru 06400035.mgt is000863.sol is000863.chm 06400035.gw               
06400036.hru 06400036.mgt is000864.sol is000864.chm 06400036.gw               
06400037.hru 06400037.mgt is000865.sol is000865.chm 06400037.gw               
06400038.hru 06400038.mgt is000866.sol is000866.chm 06400038.gw               
06400039.hru 06400039.mgt is000867.sol is000867.chm 06400039.gw               
06400040.hru 06400040.mgt is000868.sol is000868.chm 06400040.gw               
06400041.hru 06400041.mgt is000869.sol is000869.chm 06400041.gw               
06400042.hru 06400042.mgt is000870.sol is000870.chm 06400042.gw               
06400043.hru 06400043.mgt is000871.sol is000871.chm 06400043.gw               
06400044.hru 06400044.mgt is000872.sol is000872.chm 06400044.gw               
06400045.hru 06400045.mgt is000873.sol is000873.chm 06400045.gw               
06400046.hru 06400046.mgt is000874.sol is000874.chm 06400046.gw               
06400047.hru 06400047.mgt is000875.sol is000875.chm 06400047.gw               
06400048.hru 06400048.mgt is000876.sol is000876.chm 06400048.gw               
06400049.hru 06400049.mgt is000877.sol is000877.chm 06400049.gw               
