.sub file Subbasin:83 Fri Feb 23 14:09:28 2007 AVSWATX2003 - SWAT interface MDL
    59.33600
Written by i_SWAT 2016-03-10 12:26:23
!!Climate
  41.504
 313.100
      11
      11
      11
      11
      11
is00083.wgn
0


   0.000   0.000   0.000   0.000   0.000   0.000   0.000   0.000   0.000   0.000

   0.000   0.000   0.000   0.000   0.000   0.000   0.000   0.000   0.000   0.000

   0.000   0.000   0.000   0.000   0.000   0.000   0.000   0.000   0.000   0.000
   0.000
   0.000
   0.000

  18.177
   0.005
  14.948
   0.500
   0.014

000000083.PND

000000083.WUS

   0.000

   0.000   0.000   0.000   0.000   0.000   0.000

   0.000   0.000   0.000   0.000   0.000   0.000

   0.000   0.000   0.000   0.000   0.000   0.000

   0.000   0.000   0.000   0.000   0.000   0.000

   0.000   0.000   0.000   0.000   0.000   0.000

   0.000   0.000   0.000   0.000   0.000   0.000

   0.000   0.000   0.000   0.000   0.000   0.000

   0.000   0.000   0.000   0.000   0.000   0.000

      53








08300001.hru 08300001.mgt is000390.sol is000390.chm 08300001.gw               
08300002.hru 08300002.mgt is000391.sol is000391.chm 08300002.gw               
08300003.hru 08300003.mgt is000392.sol is000392.chm 08300003.gw               
08300004.hru 08300004.mgt is000393.sol is000393.chm 08300004.gw               
08300005.hru 08300005.mgt is000394.sol is000394.chm 08300005.gw               
08300006.hru 08300006.mgt is000395.sol is000395.chm 08300006.gw               
08300007.hru 08300007.mgt is000396.sol is000396.chm 08300007.gw               
08300008.hru 08300008.mgt is000397.sol is000397.chm 08300008.gw               
08300009.hru 08300009.mgt is000398.sol is000398.chm 08300009.gw               
08300010.hru 08300010.mgt is000399.sol is000399.chm 08300010.gw               
08300011.hru 08300011.mgt is000400.sol is000400.chm 08300011.gw               
08300012.hru 08300012.mgt is000401.sol is000401.chm 08300012.gw               
08300013.hru 08300013.mgt is000402.sol is000402.chm 08300013.gw               
08300014.hru 08300014.mgt is000403.sol is000403.chm 08300014.gw               
08300015.hru 08300015.mgt is000404.sol is000404.chm 08300015.gw               
08300016.hru 08300016.mgt is000405.sol is000405.chm 08300016.gw               
08300017.hru 08300017.mgt is000406.sol is000406.chm 08300017.gw               
08300018.hru 08300018.mgt is000407.sol is000407.chm 08300018.gw               
08300019.hru 08300019.mgt is000408.sol is000408.chm 08300019.gw               
08300020.hru 08300020.mgt is000409.sol is000409.chm 08300020.gw               
08300021.hru 08300021.mgt is000410.sol is000410.chm 08300021.gw               
08300022.hru 08300022.mgt is000411.sol is000411.chm 08300022.gw               
08300023.hru 08300023.mgt is000412.sol is000412.chm 08300023.gw               
08300024.hru 08300024.mgt is000413.sol is000413.chm 08300024.gw               
08300025.hru 08300025.mgt is000414.sol is000414.chm 08300025.gw               
08300026.hru 08300026.mgt is000415.sol is000415.chm 08300026.gw               
08300027.hru 08300027.mgt is000416.sol is000416.chm 08300027.gw               
08300028.hru 08300028.mgt is000417.sol is000417.chm 08300028.gw               
08300029.hru 08300029.mgt is000418.sol is000418.chm 08300029.gw               
08300030.hru 08300030.mgt is000419.sol is000419.chm 08300030.gw               
08300031.hru 08300031.mgt is000420.sol is000420.chm 08300031.gw               
08300032.hru 08300032.mgt is000421.sol is000421.chm 08300032.gw               
08300033.hru 08300033.mgt is000422.sol is000422.chm 08300033.gw               
08300034.hru 08300034.mgt is000423.sol is000423.chm 08300034.gw               
08300035.hru 08300035.mgt is000424.sol is000424.chm 08300035.gw               
08300036.hru 08300036.mgt is000425.sol is000425.chm 08300036.gw               
08300037.hru 08300037.mgt is000426.sol is000426.chm 08300037.gw               
08300038.hru 08300038.mgt is000427.sol is000427.chm 08300038.gw               
08300039.hru 08300039.mgt is000428.sol is000428.chm 08300039.gw               
08300040.hru 08300040.mgt is000429.sol is000429.chm 08300040.gw               
08300041.hru 08300041.mgt is000430.sol is000430.chm 08300041.gw               
08300042.hru 08300042.mgt is000431.sol is000431.chm 08300042.gw               
08300043.hru 08300043.mgt is000432.sol is000432.chm 08300043.gw               
08300044.hru 08300044.mgt is000433.sol is000433.chm 08300044.gw               
08300045.hru 08300045.mgt is000434.sol is000434.chm 08300045.gw               
08300046.hru 08300046.mgt is000435.sol is000435.chm 08300046.gw               
08300047.hru 08300047.mgt is000436.sol is000436.chm 08300047.gw               
08300048.hru 08300048.mgt is000437.sol is000437.chm 08300048.gw               
08300049.hru 08300049.mgt is000438.sol is000438.chm 08300049.gw               
08300050.hru 08300050.mgt is000439.sol is000439.chm 08300050.gw               
08300051.hru 08300051.mgt is000440.sol is000440.chm 08300051.gw               
08300052.hru 08300052.mgt is000441.sol is000441.chm 08300052.gw               
08300053.hru 08300053.mgt is000442.sol is000442.chm 08300053.gw               
