.sub file Subbasin:17 Fri Feb 23 14:09:20 2007 AVSWATX2003 - SWAT interface MDL
    65.21000
Written by i_SWAT 2016-03-10 12:24:29
!!Climate
  42.533
 373.690
       3
       3
       3
       3
       3
is00017.wgn
0


   0.000   0.000   0.000   0.000   0.000   0.000   0.000   0.000   0.000   0.000

   0.000   0.000   0.000   0.000   0.000   0.000   0.000   0.000   0.000   0.000

   0.000   0.000   0.000   0.000   0.000   0.000   0.000   0.000   0.000   0.000
   0.000
   0.000
   0.000

  17.123
   0.001
  15.819
   0.500
   0.014

000000017.PND

000000017.WUS

   0.000

   0.000   0.000   0.000   0.000   0.000   0.000

   0.000   0.000   0.000   0.000   0.000   0.000

   0.000   0.000   0.000   0.000   0.000   0.000

   0.000   0.000   0.000   0.000   0.000   0.000

   0.000   0.000   0.000   0.000   0.000   0.000

   0.000   0.000   0.000   0.000   0.000   0.000

   0.000   0.000   0.000   0.000   0.000   0.000

   0.000   0.000   0.000   0.000   0.000   0.000

      18








01700001.hru 01700001.mgt is002714.sol is002714.chm 01700001.gw               
01700002.hru 01700002.mgt is002715.sol is002715.chm 01700002.gw               
01700003.hru 01700003.mgt is002716.sol is002716.chm 01700003.gw               
01700004.hru 01700004.mgt is002717.sol is002717.chm 01700004.gw               
01700005.hru 01700005.mgt is002718.sol is002718.chm 01700005.gw               
01700006.hru 01700006.mgt is002719.sol is002719.chm 01700006.gw               
01700007.hru 01700007.mgt is002720.sol is002720.chm 01700007.gw               
01700008.hru 01700008.mgt is002721.sol is002721.chm 01700008.gw               
01700009.hru 01700009.mgt is002722.sol is002722.chm 01700009.gw               
01700010.hru 01700010.mgt is002723.sol is002723.chm 01700010.gw               
01700011.hru 01700011.mgt is002724.sol is002724.chm 01700011.gw               
01700012.hru 01700012.mgt is002725.sol is002725.chm 01700012.gw               
01700013.hru 01700013.mgt is002726.sol is002726.chm 01700013.gw               
01700014.hru 01700014.mgt is002727.sol is002727.chm 01700014.gw               
01700015.hru 01700015.mgt is002728.sol is002728.chm 01700015.gw               
01700016.hru 01700016.mgt is002729.sol is002729.chm 01700016.gw               
01700017.hru 01700017.mgt is002730.sol is002730.chm 01700017.gw               
01700018.hru 01700018.mgt is002731.sol is002731.chm 01700018.gw               
