.sub file Subbasin:32 Fri Feb 23 14:09:22 2007 AVSWATX2003 - SWAT interface MDL
   131.41596
Written by i_SWAT 2016-03-10 12:24:35
!!Climate
  42.304
 350.350
       3
       3
       3
       3
       3
is00032.wgn
0


   0.000   0.000   0.000   0.000   0.000   0.000   0.000   0.000   0.000   0.000

   0.000   0.000   0.000   0.000   0.000   0.000   0.000   0.000   0.000   0.000

   0.000   0.000   0.000   0.000   0.000   0.000   0.000   0.000   0.000   0.000
   0.000
   0.000
   0.000

  30.622
   0.002
  24.087
   0.500
   0.014

000000032.PND

000000032.WUS

   0.000

   0.000   0.000   0.000   0.000   0.000   0.000

   0.000   0.000   0.000   0.000   0.000   0.000

   0.000   0.000   0.000   0.000   0.000   0.000

   0.000   0.000   0.000   0.000   0.000   0.000

   0.000   0.000   0.000   0.000   0.000   0.000

   0.000   0.000   0.000   0.000   0.000   0.000

   0.000   0.000   0.000   0.000   0.000   0.000

   0.000   0.000   0.000   0.000   0.000   0.000

      34








03200001.hru 03200001.mgt is002574.sol is002574.chm 03200001.gw               
03200002.hru 03200002.mgt is002575.sol is002575.chm 03200002.gw               
03200003.hru 03200003.mgt is002576.sol is002576.chm 03200003.gw               
03200004.hru 03200004.mgt is002577.sol is002577.chm 03200004.gw               
03200005.hru 03200005.mgt is002578.sol is002578.chm 03200005.gw               
03200006.hru 03200006.mgt is002579.sol is002579.chm 03200006.gw               
03200007.hru 03200007.mgt is002580.sol is002580.chm 03200007.gw               
03200008.hru 03200008.mgt is002581.sol is002581.chm 03200008.gw               
03200009.hru 03200009.mgt is002582.sol is002582.chm 03200009.gw               
03200010.hru 03200010.mgt is002583.sol is002583.chm 03200010.gw               
03200011.hru 03200011.mgt is002584.sol is002584.chm 03200011.gw               
03200012.hru 03200012.mgt is002585.sol is002585.chm 03200012.gw               
03200013.hru 03200013.mgt is002586.sol is002586.chm 03200013.gw               
03200014.hru 03200014.mgt is002587.sol is002587.chm 03200014.gw               
03200015.hru 03200015.mgt is002588.sol is002588.chm 03200015.gw               
03200016.hru 03200016.mgt is002589.sol is002589.chm 03200016.gw               
03200017.hru 03200017.mgt is002590.sol is002590.chm 03200017.gw               
03200018.hru 03200018.mgt is002591.sol is002591.chm 03200018.gw               
03200019.hru 03200019.mgt is002592.sol is002592.chm 03200019.gw               
03200020.hru 03200020.mgt is002593.sol is002593.chm 03200020.gw               
03200021.hru 03200021.mgt is002594.sol is002594.chm 03200021.gw               
03200022.hru 03200022.mgt is002595.sol is002595.chm 03200022.gw               
03200023.hru 03200023.mgt is002596.sol is002596.chm 03200023.gw               
03200024.hru 03200024.mgt is002597.sol is002597.chm 03200024.gw               
03200025.hru 03200025.mgt is002598.sol is002598.chm 03200025.gw               
03200026.hru 03200026.mgt is002599.sol is002599.chm 03200026.gw               
03200027.hru 03200027.mgt is002600.sol is002600.chm 03200027.gw               
03200028.hru 03200028.mgt is002601.sol is002601.chm 03200028.gw               
03200029.hru 03200029.mgt is002602.sol is002602.chm 03200029.gw               
03200030.hru 03200030.mgt is002603.sol is002603.chm 03200030.gw               
03200031.hru 03200031.mgt is002604.sol is002604.chm 03200031.gw               
03200032.hru 03200032.mgt is002605.sol is002605.chm 03200032.gw               
03200033.hru 03200033.mgt is002606.sol is002606.chm 03200033.gw               
03200034.hru 03200034.mgt is002607.sol is002607.chm 03200034.gw               
