.sub file Subbasin:68 Fri Feb 23 14:09:26 2007 AVSWATX2003 - SWAT interface MDL
    89.62599
Written by i_SWAT 2016-03-10 12:26:15
!!Climate
  41.700
 300.790
       9
       9
       9
       9
       9
is00068.wgn
0


   0.000   0.000   0.000   0.000   0.000   0.000   0.000   0.000   0.000   0.000

   0.000   0.000   0.000   0.000   0.000   0.000   0.000   0.000   0.000   0.000

   0.000   0.000   0.000   0.000   0.000   0.000   0.000   0.000   0.000   0.000
   0.000
   0.000
   0.000

  22.446
   0.002
  19.145
   0.500
   0.014

000000068.PND

000000068.WUS

   0.000

   0.000   0.000   0.000   0.000   0.000   0.000

   0.000   0.000   0.000   0.000   0.000   0.000

   0.000   0.000   0.000   0.000   0.000   0.000

   0.000   0.000   0.000   0.000   0.000   0.000

   0.000   0.000   0.000   0.000   0.000   0.000

   0.000   0.000   0.000   0.000   0.000   0.000

   0.000   0.000   0.000   0.000   0.000   0.000

   0.000   0.000   0.000   0.000   0.000   0.000

      27








06800001.hru 06800001.mgt is000336.sol is000336.chm 06800001.gw               
06800002.hru 06800002.mgt is000337.sol is000337.chm 06800002.gw               
06800003.hru 06800003.mgt is000338.sol is000338.chm 06800003.gw               
06800004.hru 06800004.mgt is000339.sol is000339.chm 06800004.gw               
06800005.hru 06800005.mgt is000340.sol is000340.chm 06800005.gw               
06800006.hru 06800006.mgt is000341.sol is000341.chm 06800006.gw               
06800007.hru 06800007.mgt is000342.sol is000342.chm 06800007.gw               
06800008.hru 06800008.mgt is000343.sol is000343.chm 06800008.gw               
06800009.hru 06800009.mgt is000344.sol is000344.chm 06800009.gw               
06800010.hru 06800010.mgt is000345.sol is000345.chm 06800010.gw               
06800011.hru 06800011.mgt is000346.sol is000346.chm 06800011.gw               
06800012.hru 06800012.mgt is000347.sol is000347.chm 06800012.gw               
06800013.hru 06800013.mgt is000348.sol is000348.chm 06800013.gw               
06800014.hru 06800014.mgt is000349.sol is000349.chm 06800014.gw               
06800015.hru 06800015.mgt is000350.sol is000350.chm 06800015.gw               
06800016.hru 06800016.mgt is000351.sol is000351.chm 06800016.gw               
06800017.hru 06800017.mgt is000352.sol is000352.chm 06800017.gw               
06800018.hru 06800018.mgt is000353.sol is000353.chm 06800018.gw               
06800019.hru 06800019.mgt is000354.sol is000354.chm 06800019.gw               
06800020.hru 06800020.mgt is000355.sol is000355.chm 06800020.gw               
06800021.hru 06800021.mgt is000356.sol is000356.chm 06800021.gw               
06800022.hru 06800022.mgt is000357.sol is000357.chm 06800022.gw               
06800023.hru 06800023.mgt is000358.sol is000358.chm 06800023.gw               
06800024.hru 06800024.mgt is000359.sol is000359.chm 06800024.gw               
06800025.hru 06800025.mgt is000360.sol is000360.chm 06800025.gw               
06800026.hru 06800026.mgt is000361.sol is000361.chm 06800026.gw               
06800027.hru 06800027.mgt is000362.sol is000362.chm 06800027.gw               
