.sub file Subbasin:12 Fri Feb 23 14:09:20 2007 AVSWATX2003 - SWAT interface MDL
   107.98401
Written by i_SWAT 2016-03-10 12:24:28
!!Climate
  42.647
 429.620
       1
       1
       1
       1
       1
is00012.wgn
0


   0.000   0.000   0.000   0.000   0.000   0.000   0.000   0.000   0.000   0.000

   0.000   0.000   0.000   0.000   0.000   0.000   0.000   0.000   0.000   0.000

   0.000   0.000   0.000   0.000   0.000   0.000   0.000   0.000   0.000   0.000
   0.000
   0.000
   0.000

  40.866
   0.002
  21.409
   0.500
   0.014

000000012.PND

000000012.WUS

   0.000

   0.000   0.000   0.000   0.000   0.000   0.000

   0.000   0.000   0.000   0.000   0.000   0.000

   0.000   0.000   0.000   0.000   0.000   0.000

   0.000   0.000   0.000   0.000   0.000   0.000

   0.000   0.000   0.000   0.000   0.000   0.000

   0.000   0.000   0.000   0.000   0.000   0.000

   0.000   0.000   0.000   0.000   0.000   0.000

   0.000   0.000   0.000   0.000   0.000   0.000

      55








01200001.hru 01200001.mgt is002920.sol is002920.chm 01200001.gw               
01200002.hru 01200002.mgt is002921.sol is002921.chm 01200002.gw               
01200003.hru 01200003.mgt is002922.sol is002922.chm 01200003.gw               
01200004.hru 01200004.mgt is002923.sol is002923.chm 01200004.gw               
01200005.hru 01200005.mgt is002924.sol is002924.chm 01200005.gw               
01200006.hru 01200006.mgt is002925.sol is002925.chm 01200006.gw               
01200007.hru 01200007.mgt is002926.sol is002926.chm 01200007.gw               
01200008.hru 01200008.mgt is002927.sol is002927.chm 01200008.gw               
01200009.hru 01200009.mgt is002928.sol is002928.chm 01200009.gw               
01200010.hru 01200010.mgt is002929.sol is002929.chm 01200010.gw               
01200011.hru 01200011.mgt is002930.sol is002930.chm 01200011.gw               
01200012.hru 01200012.mgt is002931.sol is002931.chm 01200012.gw               
01200013.hru 01200013.mgt is002932.sol is002932.chm 01200013.gw               
01200014.hru 01200014.mgt is002933.sol is002933.chm 01200014.gw               
01200015.hru 01200015.mgt is002934.sol is002934.chm 01200015.gw               
01200016.hru 01200016.mgt is002935.sol is002935.chm 01200016.gw               
01200017.hru 01200017.mgt is002936.sol is002936.chm 01200017.gw               
01200018.hru 01200018.mgt is002937.sol is002937.chm 01200018.gw               
01200019.hru 01200019.mgt is002938.sol is002938.chm 01200019.gw               
01200020.hru 01200020.mgt is002939.sol is002939.chm 01200020.gw               
01200021.hru 01200021.mgt is002940.sol is002940.chm 01200021.gw               
01200022.hru 01200022.mgt is002941.sol is002941.chm 01200022.gw               
01200023.hru 01200023.mgt is002942.sol is002942.chm 01200023.gw               
01200024.hru 01200024.mgt is002943.sol is002943.chm 01200024.gw               
01200025.hru 01200025.mgt is002944.sol is002944.chm 01200025.gw               
01200026.hru 01200026.mgt is002945.sol is002945.chm 01200026.gw               
01200027.hru 01200027.mgt is002946.sol is002946.chm 01200027.gw               
01200028.hru 01200028.mgt is002947.sol is002947.chm 01200028.gw               
01200029.hru 01200029.mgt is002948.sol is002948.chm 01200029.gw               
01200030.hru 01200030.mgt is002949.sol is002949.chm 01200030.gw               
01200031.hru 01200031.mgt is002950.sol is002950.chm 01200031.gw               
01200032.hru 01200032.mgt is002951.sol is002951.chm 01200032.gw               
01200033.hru 01200033.mgt is002952.sol is002952.chm 01200033.gw               
01200034.hru 01200034.mgt is002953.sol is002953.chm 01200034.gw               
01200035.hru 01200035.mgt is002954.sol is002954.chm 01200035.gw               
01200036.hru 01200036.mgt is002955.sol is002955.chm 01200036.gw               
01200037.hru 01200037.mgt is002956.sol is002956.chm 01200037.gw               
01200038.hru 01200038.mgt is002957.sol is002957.chm 01200038.gw               
01200039.hru 01200039.mgt is002958.sol is002958.chm 01200039.gw               
01200040.hru 01200040.mgt is002959.sol is002959.chm 01200040.gw               
01200041.hru 01200041.mgt is002960.sol is002960.chm 01200041.gw               
01200042.hru 01200042.mgt is002961.sol is002961.chm 01200042.gw               
01200043.hru 01200043.mgt is002962.sol is002962.chm 01200043.gw               
01200044.hru 01200044.mgt is002963.sol is002963.chm 01200044.gw               
01200045.hru 01200045.mgt is002964.sol is002964.chm 01200045.gw               
01200046.hru 01200046.mgt is002965.sol is002965.chm 01200046.gw               
01200047.hru 01200047.mgt is002966.sol is002966.chm 01200047.gw               
01200048.hru 01200048.mgt is002967.sol is002967.chm 01200048.gw               
01200049.hru 01200049.mgt is002968.sol is002968.chm 01200049.gw               
01200050.hru 01200050.mgt is002969.sol is002969.chm 01200050.gw               
01200051.hru 01200051.mgt is002970.sol is002970.chm 01200051.gw               
01200052.hru 01200052.mgt is002971.sol is002971.chm 01200052.gw               
01200053.hru 01200053.mgt is002972.sol is002972.chm 01200053.gw               
01200054.hru 01200054.mgt is002973.sol is002973.chm 01200054.gw               
01200055.hru 01200055.mgt is002974.sol is002974.chm 01200055.gw               
