.sub file Subbasin:79 Fri Feb 23 14:09:27 2007 AVSWATX2003 - SWAT interface MDL
    57.62499
Written by i_SWAT 2016-03-10 12:26:21
!!Climate
  41.586
 302.910
       9
       9
       9
       9
       9
is00079.wgn
0


   0.000   0.000   0.000   0.000   0.000   0.000   0.000   0.000   0.000   0.000

   0.000   0.000   0.000   0.000   0.000   0.000   0.000   0.000   0.000   0.000

   0.000   0.000   0.000   0.000   0.000   0.000   0.000   0.000   0.000   0.000
   0.000
   0.000
   0.000

  19.065
   0.003
  14.688
   0.500
   0.014

000000079.PND

000000079.WUS

   0.000

   0.000   0.000   0.000   0.000   0.000   0.000

   0.000   0.000   0.000   0.000   0.000   0.000

   0.000   0.000   0.000   0.000   0.000   0.000

   0.000   0.000   0.000   0.000   0.000   0.000

   0.000   0.000   0.000   0.000   0.000   0.000

   0.000   0.000   0.000   0.000   0.000   0.000

   0.000   0.000   0.000   0.000   0.000   0.000

   0.000   0.000   0.000   0.000   0.000   0.000

      48








07900001.hru 07900001.mgt is000443.sol is000443.chm 07900001.gw               
07900002.hru 07900002.mgt is000444.sol is000444.chm 07900002.gw               
07900003.hru 07900003.mgt is000445.sol is000445.chm 07900003.gw               
07900004.hru 07900004.mgt is000446.sol is000446.chm 07900004.gw               
07900005.hru 07900005.mgt is000447.sol is000447.chm 07900005.gw               
07900006.hru 07900006.mgt is000448.sol is000448.chm 07900006.gw               
07900007.hru 07900007.mgt is000449.sol is000449.chm 07900007.gw               
07900008.hru 07900008.mgt is000450.sol is000450.chm 07900008.gw               
07900009.hru 07900009.mgt is000451.sol is000451.chm 07900009.gw               
07900010.hru 07900010.mgt is000452.sol is000452.chm 07900010.gw               
07900011.hru 07900011.mgt is000453.sol is000453.chm 07900011.gw               
07900012.hru 07900012.mgt is000454.sol is000454.chm 07900012.gw               
07900013.hru 07900013.mgt is000455.sol is000455.chm 07900013.gw               
07900014.hru 07900014.mgt is000456.sol is000456.chm 07900014.gw               
07900015.hru 07900015.mgt is000457.sol is000457.chm 07900015.gw               
07900016.hru 07900016.mgt is000458.sol is000458.chm 07900016.gw               
07900017.hru 07900017.mgt is000459.sol is000459.chm 07900017.gw               
07900018.hru 07900018.mgt is000460.sol is000460.chm 07900018.gw               
07900019.hru 07900019.mgt is000461.sol is000461.chm 07900019.gw               
07900020.hru 07900020.mgt is000462.sol is000462.chm 07900020.gw               
07900021.hru 07900021.mgt is000463.sol is000463.chm 07900021.gw               
07900022.hru 07900022.mgt is000464.sol is000464.chm 07900022.gw               
07900023.hru 07900023.mgt is000465.sol is000465.chm 07900023.gw               
07900024.hru 07900024.mgt is000466.sol is000466.chm 07900024.gw               
07900025.hru 07900025.mgt is000467.sol is000467.chm 07900025.gw               
07900026.hru 07900026.mgt is000468.sol is000468.chm 07900026.gw               
07900027.hru 07900027.mgt is000469.sol is000469.chm 07900027.gw               
07900028.hru 07900028.mgt is000470.sol is000470.chm 07900028.gw               
07900029.hru 07900029.mgt is000471.sol is000471.chm 07900029.gw               
07900030.hru 07900030.mgt is000472.sol is000472.chm 07900030.gw               
07900031.hru 07900031.mgt is000473.sol is000473.chm 07900031.gw               
07900032.hru 07900032.mgt is000474.sol is000474.chm 07900032.gw               
07900033.hru 07900033.mgt is000475.sol is000475.chm 07900033.gw               
07900034.hru 07900034.mgt is000476.sol is000476.chm 07900034.gw               
07900035.hru 07900035.mgt is000477.sol is000477.chm 07900035.gw               
07900036.hru 07900036.mgt is000478.sol is000478.chm 07900036.gw               
07900037.hru 07900037.mgt is000479.sol is000479.chm 07900037.gw               
07900038.hru 07900038.mgt is000480.sol is000480.chm 07900038.gw               
07900039.hru 07900039.mgt is000481.sol is000481.chm 07900039.gw               
07900040.hru 07900040.mgt is000482.sol is000482.chm 07900040.gw               
07900041.hru 07900041.mgt is000483.sol is000483.chm 07900041.gw               
07900042.hru 07900042.mgt is000484.sol is000484.chm 07900042.gw               
07900043.hru 07900043.mgt is000485.sol is000485.chm 07900043.gw               
07900044.hru 07900044.mgt is000486.sol is000486.chm 07900044.gw               
07900045.hru 07900045.mgt is000487.sol is000487.chm 07900045.gw               
07900046.hru 07900046.mgt is000488.sol is000488.chm 07900046.gw               
07900047.hru 07900047.mgt is000489.sol is000489.chm 07900047.gw               
07900048.hru 07900048.mgt is000490.sol is000490.chm 07900048.gw               
