.sub file Subbasin:15 Fri Feb 23 14:09:20 2007 AVSWATX2003 - SWAT interface MDL
    52.36399
Written by i_SWAT 2016-03-10 12:24:29
!!Climate
  42.544
 404.720
       1
       1
       1
       1
       1
is00015.wgn
0


   0.000   0.000   0.000   0.000   0.000   0.000   0.000   0.000   0.000   0.000

   0.000   0.000   0.000   0.000   0.000   0.000   0.000   0.000   0.000   0.000

   0.000   0.000   0.000   0.000   0.000   0.000   0.000   0.000   0.000   0.000
   0.000
   0.000
   0.000

  15.850
   0.003
  13.868
   0.500
   0.014

000000015.PND

000000015.WUS

   0.000

   0.000   0.000   0.000   0.000   0.000   0.000

   0.000   0.000   0.000   0.000   0.000   0.000

   0.000   0.000   0.000   0.000   0.000   0.000

   0.000   0.000   0.000   0.000   0.000   0.000

   0.000   0.000   0.000   0.000   0.000   0.000

   0.000   0.000   0.000   0.000   0.000   0.000

   0.000   0.000   0.000   0.000   0.000   0.000

   0.000   0.000   0.000   0.000   0.000   0.000

      30








01500001.hru 01500001.mgt is002975.sol is002975.chm 01500001.gw               
01500002.hru 01500002.mgt is002976.sol is002976.chm 01500002.gw               
01500003.hru 01500003.mgt is002977.sol is002977.chm 01500003.gw               
01500004.hru 01500004.mgt is002978.sol is002978.chm 01500004.gw               
01500005.hru 01500005.mgt is002979.sol is002979.chm 01500005.gw               
01500006.hru 01500006.mgt is002980.sol is002980.chm 01500006.gw               
01500007.hru 01500007.mgt is002981.sol is002981.chm 01500007.gw               
01500008.hru 01500008.mgt is002982.sol is002982.chm 01500008.gw               
01500009.hru 01500009.mgt is002983.sol is002983.chm 01500009.gw               
01500010.hru 01500010.mgt is002984.sol is002984.chm 01500010.gw               
01500011.hru 01500011.mgt is002985.sol is002985.chm 01500011.gw               
01500012.hru 01500012.mgt is002986.sol is002986.chm 01500012.gw               
01500013.hru 01500013.mgt is002987.sol is002987.chm 01500013.gw               
01500014.hru 01500014.mgt is002988.sol is002988.chm 01500014.gw               
01500015.hru 01500015.mgt is002989.sol is002989.chm 01500015.gw               
01500016.hru 01500016.mgt is002990.sol is002990.chm 01500016.gw               
01500017.hru 01500017.mgt is002991.sol is002991.chm 01500017.gw               
01500018.hru 01500018.mgt is002992.sol is002992.chm 01500018.gw               
01500019.hru 01500019.mgt is002993.sol is002993.chm 01500019.gw               
01500020.hru 01500020.mgt is002994.sol is002994.chm 01500020.gw               
01500021.hru 01500021.mgt is002995.sol is002995.chm 01500021.gw               
01500022.hru 01500022.mgt is002996.sol is002996.chm 01500022.gw               
01500023.hru 01500023.mgt is002997.sol is002997.chm 01500023.gw               
01500024.hru 01500024.mgt is002998.sol is002998.chm 01500024.gw               
01500025.hru 01500025.mgt is002999.sol is002999.chm 01500025.gw               
01500026.hru 01500026.mgt is003000.sol is003000.chm 01500026.gw               
01500027.hru 01500027.mgt is003001.sol is003001.chm 01500027.gw               
01500028.hru 01500028.mgt is003002.sol is003002.chm 01500028.gw               
01500029.hru 01500029.mgt is003003.sol is003003.chm 01500029.gw               
01500030.hru 01500030.mgt is003004.sol is003004.chm 01500030.gw               
