.sub file Subbasin:66 Fri Feb 23 14:09:26 2007 AVSWATX2003 - SWAT interface MDL
    59.71100
Written by i_SWAT 2016-03-10 12:26:14
!!Climate
  41.730
 346.700
       8
       8
       8
       8
       8
is00066.wgn
0


   0.000   0.000   0.000   0.000   0.000   0.000   0.000   0.000   0.000   0.000

   0.000   0.000   0.000   0.000   0.000   0.000   0.000   0.000   0.000   0.000

   0.000   0.000   0.000   0.000   0.000   0.000   0.000   0.000   0.000   0.000
   0.000
   0.000
   0.000

  22.471
   0.003
  15.005
   0.500
   0.014

000000066.PND

000000066.WUS

   0.000

   0.000   0.000   0.000   0.000   0.000   0.000

   0.000   0.000   0.000   0.000   0.000   0.000

   0.000   0.000   0.000   0.000   0.000   0.000

   0.000   0.000   0.000   0.000   0.000   0.000

   0.000   0.000   0.000   0.000   0.000   0.000

   0.000   0.000   0.000   0.000   0.000   0.000

   0.000   0.000   0.000   0.000   0.000   0.000

   0.000   0.000   0.000   0.000   0.000   0.000

      36








06600001.hru 06600001.mgt is001082.sol is001082.chm 06600001.gw               
06600002.hru 06600002.mgt is001083.sol is001083.chm 06600002.gw               
06600003.hru 06600003.mgt is001084.sol is001084.chm 06600003.gw               
06600004.hru 06600004.mgt is001085.sol is001085.chm 06600004.gw               
06600005.hru 06600005.mgt is001086.sol is001086.chm 06600005.gw               
06600006.hru 06600006.mgt is001087.sol is001087.chm 06600006.gw               
06600007.hru 06600007.mgt is001088.sol is001088.chm 06600007.gw               
06600008.hru 06600008.mgt is001089.sol is001089.chm 06600008.gw               
06600009.hru 06600009.mgt is001090.sol is001090.chm 06600009.gw               
06600010.hru 06600010.mgt is001091.sol is001091.chm 06600010.gw               
06600011.hru 06600011.mgt is001092.sol is001092.chm 06600011.gw               
06600012.hru 06600012.mgt is001093.sol is001093.chm 06600012.gw               
06600013.hru 06600013.mgt is001094.sol is001094.chm 06600013.gw               
06600014.hru 06600014.mgt is001095.sol is001095.chm 06600014.gw               
06600015.hru 06600015.mgt is001096.sol is001096.chm 06600015.gw               
06600016.hru 06600016.mgt is001097.sol is001097.chm 06600016.gw               
06600017.hru 06600017.mgt is001098.sol is001098.chm 06600017.gw               
06600018.hru 06600018.mgt is001099.sol is001099.chm 06600018.gw               
06600019.hru 06600019.mgt is001100.sol is001100.chm 06600019.gw               
06600020.hru 06600020.mgt is001101.sol is001101.chm 06600020.gw               
06600021.hru 06600021.mgt is001102.sol is001102.chm 06600021.gw               
06600022.hru 06600022.mgt is001103.sol is001103.chm 06600022.gw               
06600023.hru 06600023.mgt is001104.sol is001104.chm 06600023.gw               
06600024.hru 06600024.mgt is001105.sol is001105.chm 06600024.gw               
06600025.hru 06600025.mgt is001106.sol is001106.chm 06600025.gw               
06600026.hru 06600026.mgt is001107.sol is001107.chm 06600026.gw               
06600027.hru 06600027.mgt is001108.sol is001108.chm 06600027.gw               
06600028.hru 06600028.mgt is001109.sol is001109.chm 06600028.gw               
06600029.hru 06600029.mgt is001110.sol is001110.chm 06600029.gw               
06600030.hru 06600030.mgt is001111.sol is001111.chm 06600030.gw               
06600031.hru 06600031.mgt is001112.sol is001112.chm 06600031.gw               
06600032.hru 06600032.mgt is001113.sol is001113.chm 06600032.gw               
06600033.hru 06600033.mgt is001114.sol is001114.chm 06600033.gw               
06600034.hru 06600034.mgt is001115.sol is001115.chm 06600034.gw               
06600035.hru 06600035.mgt is001116.sol is001116.chm 06600035.gw               
06600036.hru 06600036.mgt is001117.sol is001117.chm 06600036.gw               
