.sub file Subbasin:19 Fri Feb 23 14:09:20 2007 AVSWATX2003 - SWAT interface MDL
    56.47800
Written by i_SWAT 2016-03-10 12:24:30
!!Climate
  42.505
 371.940
       4
       4
       4
       4
       4
is00019.wgn
0


   0.000   0.000   0.000   0.000   0.000   0.000   0.000   0.000   0.000   0.000

   0.000   0.000   0.000   0.000   0.000   0.000   0.000   0.000   0.000   0.000

   0.000   0.000   0.000   0.000   0.000   0.000   0.000   0.000   0.000   0.000
   0.000
   0.000
   0.000

  25.069
   0.001
  14.512
   0.500
   0.014

000000019.PND

000000019.WUS

   0.000

   0.000   0.000   0.000   0.000   0.000   0.000

   0.000   0.000   0.000   0.000   0.000   0.000

   0.000   0.000   0.000   0.000   0.000   0.000

   0.000   0.000   0.000   0.000   0.000   0.000

   0.000   0.000   0.000   0.000   0.000   0.000

   0.000   0.000   0.000   0.000   0.000   0.000

   0.000   0.000   0.000   0.000   0.000   0.000

   0.000   0.000   0.000   0.000   0.000   0.000

      20








01900001.hru 01900001.mgt is002369.sol is002369.chm 01900001.gw               
01900002.hru 01900002.mgt is002370.sol is002370.chm 01900002.gw               
01900003.hru 01900003.mgt is002371.sol is002371.chm 01900003.gw               
01900004.hru 01900004.mgt is002372.sol is002372.chm 01900004.gw               
01900005.hru 01900005.mgt is002373.sol is002373.chm 01900005.gw               
01900006.hru 01900006.mgt is002374.sol is002374.chm 01900006.gw               
01900007.hru 01900007.mgt is002375.sol is002375.chm 01900007.gw               
01900008.hru 01900008.mgt is002376.sol is002376.chm 01900008.gw               
01900009.hru 01900009.mgt is002377.sol is002377.chm 01900009.gw               
01900010.hru 01900010.mgt is002378.sol is002378.chm 01900010.gw               
01900011.hru 01900011.mgt is002379.sol is002379.chm 01900011.gw               
01900012.hru 01900012.mgt is002380.sol is002380.chm 01900012.gw               
01900013.hru 01900013.mgt is002381.sol is002381.chm 01900013.gw               
01900014.hru 01900014.mgt is002382.sol is002382.chm 01900014.gw               
01900015.hru 01900015.mgt is002383.sol is002383.chm 01900015.gw               
01900016.hru 01900016.mgt is002384.sol is002384.chm 01900016.gw               
01900017.hru 01900017.mgt is002385.sol is002385.chm 01900017.gw               
01900018.hru 01900018.mgt is002386.sol is002386.chm 01900018.gw               
01900019.hru 01900019.mgt is002387.sol is002387.chm 01900019.gw               
01900020.hru 01900020.mgt is002388.sol is002388.chm 01900020.gw               
