.sub file Subbasin:74 Fri Feb 23 14:09:27 2007 AVSWATX2003 - SWAT interface MDL
    49.44501
Written by i_SWAT 2016-03-10 12:26:18
!!Climate
  41.620
 314.620
       8
       8
       8
       8
       8
is00074.wgn
0


   0.000   0.000   0.000   0.000   0.000   0.000   0.000   0.000   0.000   0.000

   0.000   0.000   0.000   0.000   0.000   0.000   0.000   0.000   0.000   0.000

   0.000   0.000   0.000   0.000   0.000   0.000   0.000   0.000   0.000   0.000
   0.000
   0.000
   0.000

  18.500
   0.004
  13.399
   0.500
   0.014

000000074.PND

000000074.WUS

   0.000

   0.000   0.000   0.000   0.000   0.000   0.000

   0.000   0.000   0.000   0.000   0.000   0.000

   0.000   0.000   0.000   0.000   0.000   0.000

   0.000   0.000   0.000   0.000   0.000   0.000

   0.000   0.000   0.000   0.000   0.000   0.000

   0.000   0.000   0.000   0.000   0.000   0.000

   0.000   0.000   0.000   0.000   0.000   0.000

   0.000   0.000   0.000   0.000   0.000   0.000

      37








07400001.hru 07400001.mgt is000736.sol is000736.chm 07400001.gw               
07400002.hru 07400002.mgt is000737.sol is000737.chm 07400002.gw               
07400003.hru 07400003.mgt is000738.sol is000738.chm 07400003.gw               
07400004.hru 07400004.mgt is000739.sol is000739.chm 07400004.gw               
07400005.hru 07400005.mgt is000740.sol is000740.chm 07400005.gw               
07400006.hru 07400006.mgt is000741.sol is000741.chm 07400006.gw               
07400007.hru 07400007.mgt is000742.sol is000742.chm 07400007.gw               
07400008.hru 07400008.mgt is000743.sol is000743.chm 07400008.gw               
07400009.hru 07400009.mgt is000744.sol is000744.chm 07400009.gw               
07400010.hru 07400010.mgt is000745.sol is000745.chm 07400010.gw               
07400011.hru 07400011.mgt is000746.sol is000746.chm 07400011.gw               
07400012.hru 07400012.mgt is000747.sol is000747.chm 07400012.gw               
07400013.hru 07400013.mgt is000748.sol is000748.chm 07400013.gw               
07400014.hru 07400014.mgt is000749.sol is000749.chm 07400014.gw               
07400015.hru 07400015.mgt is000750.sol is000750.chm 07400015.gw               
07400016.hru 07400016.mgt is000751.sol is000751.chm 07400016.gw               
07400017.hru 07400017.mgt is000752.sol is000752.chm 07400017.gw               
07400018.hru 07400018.mgt is000753.sol is000753.chm 07400018.gw               
07400019.hru 07400019.mgt is000754.sol is000754.chm 07400019.gw               
07400020.hru 07400020.mgt is000755.sol is000755.chm 07400020.gw               
07400021.hru 07400021.mgt is000756.sol is000756.chm 07400021.gw               
07400022.hru 07400022.mgt is000757.sol is000757.chm 07400022.gw               
07400023.hru 07400023.mgt is000758.sol is000758.chm 07400023.gw               
07400024.hru 07400024.mgt is000759.sol is000759.chm 07400024.gw               
07400025.hru 07400025.mgt is000760.sol is000760.chm 07400025.gw               
07400026.hru 07400026.mgt is000761.sol is000761.chm 07400026.gw               
07400027.hru 07400027.mgt is000762.sol is000762.chm 07400027.gw               
07400028.hru 07400028.mgt is000763.sol is000763.chm 07400028.gw               
07400029.hru 07400029.mgt is000764.sol is000764.chm 07400029.gw               
07400030.hru 07400030.mgt is000765.sol is000765.chm 07400030.gw               
07400031.hru 07400031.mgt is000766.sol is000766.chm 07400031.gw               
07400032.hru 07400032.mgt is000767.sol is000767.chm 07400032.gw               
07400033.hru 07400033.mgt is000768.sol is000768.chm 07400033.gw               
07400034.hru 07400034.mgt is000769.sol is000769.chm 07400034.gw               
07400035.hru 07400035.mgt is000770.sol is000770.chm 07400035.gw               
07400036.hru 07400036.mgt is000771.sol is000771.chm 07400036.gw               
07400037.hru 07400037.mgt is000772.sol is000772.chm 07400037.gw               
