.sub file Subbasin:41 Fri Feb 23 14:09:23 2007 AVSWATX2003 - SWAT interface MDL
   153.23399
Written by i_SWAT 2016-03-10 12:24:38
!!Climate
  42.208
 349.060
       4
       4
       4
       4
       4
is00041.wgn
0


   0.000   0.000   0.000   0.000   0.000   0.000   0.000   0.000   0.000   0.000

   0.000   0.000   0.000   0.000   0.000   0.000   0.000   0.000   0.000   0.000

   0.000   0.000   0.000   0.000   0.000   0.000   0.000   0.000   0.000   0.000
   0.000
   0.000
   0.000

  39.744
   0.001
  26.412
   0.500
   0.014

000000041.PND

000000041.WUS

   0.000

   0.000   0.000   0.000   0.000   0.000   0.000

   0.000   0.000   0.000   0.000   0.000   0.000

   0.000   0.000   0.000   0.000   0.000   0.000

   0.000   0.000   0.000   0.000   0.000   0.000

   0.000   0.000   0.000   0.000   0.000   0.000

   0.000   0.000   0.000   0.000   0.000   0.000

   0.000   0.000   0.000   0.000   0.000   0.000

   0.000   0.000   0.000   0.000   0.000   0.000

      35








04100001.hru 04100001.mgt is002017.sol is002017.chm 04100001.gw               
04100002.hru 04100002.mgt is002018.sol is002018.chm 04100002.gw               
04100003.hru 04100003.mgt is002019.sol is002019.chm 04100003.gw               
04100004.hru 04100004.mgt is002020.sol is002020.chm 04100004.gw               
04100005.hru 04100005.mgt is002021.sol is002021.chm 04100005.gw               
04100006.hru 04100006.mgt is002022.sol is002022.chm 04100006.gw               
04100007.hru 04100007.mgt is002023.sol is002023.chm 04100007.gw               
04100008.hru 04100008.mgt is002024.sol is002024.chm 04100008.gw               
04100009.hru 04100009.mgt is002025.sol is002025.chm 04100009.gw               
04100010.hru 04100010.mgt is002026.sol is002026.chm 04100010.gw               
04100011.hru 04100011.mgt is002027.sol is002027.chm 04100011.gw               
04100012.hru 04100012.mgt is002028.sol is002028.chm 04100012.gw               
04100013.hru 04100013.mgt is002029.sol is002029.chm 04100013.gw               
04100014.hru 04100014.mgt is002030.sol is002030.chm 04100014.gw               
04100015.hru 04100015.mgt is002031.sol is002031.chm 04100015.gw               
04100016.hru 04100016.mgt is002032.sol is002032.chm 04100016.gw               
04100017.hru 04100017.mgt is002033.sol is002033.chm 04100017.gw               
04100018.hru 04100018.mgt is002034.sol is002034.chm 04100018.gw               
04100019.hru 04100019.mgt is002035.sol is002035.chm 04100019.gw               
04100020.hru 04100020.mgt is002036.sol is002036.chm 04100020.gw               
04100021.hru 04100021.mgt is002037.sol is002037.chm 04100021.gw               
04100022.hru 04100022.mgt is002038.sol is002038.chm 04100022.gw               
04100023.hru 04100023.mgt is002039.sol is002039.chm 04100023.gw               
04100024.hru 04100024.mgt is002040.sol is002040.chm 04100024.gw               
04100025.hru 04100025.mgt is002041.sol is002041.chm 04100025.gw               
04100026.hru 04100026.mgt is002042.sol is002042.chm 04100026.gw               
04100027.hru 04100027.mgt is002043.sol is002043.chm 04100027.gw               
04100028.hru 04100028.mgt is002044.sol is002044.chm 04100028.gw               
04100029.hru 04100029.mgt is002045.sol is002045.chm 04100029.gw               
04100030.hru 04100030.mgt is002046.sol is002046.chm 04100030.gw               
04100031.hru 04100031.mgt is002047.sol is002047.chm 04100031.gw               
04100032.hru 04100032.mgt is002048.sol is002048.chm 04100032.gw               
04100033.hru 04100033.mgt is002049.sol is002049.chm 04100033.gw               
04100034.hru 04100034.mgt is002050.sol is002050.chm 04100034.gw               
04100035.hru 04100035.mgt is002051.sol is002051.chm 04100035.gw               
