.sub file Subbasin:54 Fri Feb 23 14:09:24 2007 AVSWATX2003 - SWAT interface MDL
    44.38600
Written by i_SWAT 2016-03-10 12:25:20
!!Climate
  42.037
 310.190
       7
       7
       7
       7
       7
is00054.wgn
0


   0.000   0.000   0.000   0.000   0.000   0.000   0.000   0.000   0.000   0.000

   0.000   0.000   0.000   0.000   0.000   0.000   0.000   0.000   0.000   0.000

   0.000   0.000   0.000   0.000   0.000   0.000   0.000   0.000   0.000   0.000
   0.000
   0.000
   0.000

  21.340
   0.003
  12.559
   0.500
   0.014

000000054.PND

000000054.WUS

   0.000

   0.000   0.000   0.000   0.000   0.000   0.000

   0.000   0.000   0.000   0.000   0.000   0.000

   0.000   0.000   0.000   0.000   0.000   0.000

   0.000   0.000   0.000   0.000   0.000   0.000

   0.000   0.000   0.000   0.000   0.000   0.000

   0.000   0.000   0.000   0.000   0.000   0.000

   0.000   0.000   0.000   0.000   0.000   0.000

   0.000   0.000   0.000   0.000   0.000   0.000

      40








05400001.hru 05400001.mgt is003239.sol is003239.chm 05400001.gw               
05400002.hru 05400002.mgt is003240.sol is003240.chm 05400002.gw               
05400003.hru 05400003.mgt is003241.sol is003241.chm 05400003.gw               
05400004.hru 05400004.mgt is003242.sol is003242.chm 05400004.gw               
05400005.hru 05400005.mgt is003243.sol is003243.chm 05400005.gw               
05400006.hru 05400006.mgt is003244.sol is003244.chm 05400006.gw               
05400007.hru 05400007.mgt is003245.sol is003245.chm 05400007.gw               
05400008.hru 05400008.mgt is003246.sol is003246.chm 05400008.gw               
05400009.hru 05400009.mgt is003247.sol is003247.chm 05400009.gw               
05400010.hru 05400010.mgt is003248.sol is003248.chm 05400010.gw               
05400011.hru 05400011.mgt is003249.sol is003249.chm 05400011.gw               
05400012.hru 05400012.mgt is003250.sol is003250.chm 05400012.gw               
05400013.hru 05400013.mgt is003251.sol is003251.chm 05400013.gw               
05400014.hru 05400014.mgt is003252.sol is003252.chm 05400014.gw               
05400015.hru 05400015.mgt is003253.sol is003253.chm 05400015.gw               
05400016.hru 05400016.mgt is003254.sol is003254.chm 05400016.gw               
05400017.hru 05400017.mgt is003255.sol is003255.chm 05400017.gw               
05400018.hru 05400018.mgt is003256.sol is003256.chm 05400018.gw               
05400019.hru 05400019.mgt is003257.sol is003257.chm 05400019.gw               
05400020.hru 05400020.mgt is003258.sol is003258.chm 05400020.gw               
05400021.hru 05400021.mgt is003259.sol is003259.chm 05400021.gw               
05400022.hru 05400022.mgt is003260.sol is003260.chm 05400022.gw               
05400023.hru 05400023.mgt is003261.sol is003261.chm 05400023.gw               
05400024.hru 05400024.mgt is003262.sol is003262.chm 05400024.gw               
05400025.hru 05400025.mgt is003263.sol is003263.chm 05400025.gw               
05400026.hru 05400026.mgt is003264.sol is003264.chm 05400026.gw               
05400027.hru 05400027.mgt is003265.sol is003265.chm 05400027.gw               
05400028.hru 05400028.mgt is003266.sol is003266.chm 05400028.gw               
05400029.hru 05400029.mgt is003267.sol is003267.chm 05400029.gw               
05400030.hru 05400030.mgt is003268.sol is003268.chm 05400030.gw               
05400031.hru 05400031.mgt is003269.sol is003269.chm 05400031.gw               
05400032.hru 05400032.mgt is003270.sol is003270.chm 05400032.gw               
05400033.hru 05400033.mgt is003271.sol is003271.chm 05400033.gw               
05400034.hru 05400034.mgt is003272.sol is003272.chm 05400034.gw               
05400035.hru 05400035.mgt is003273.sol is003273.chm 05400035.gw               
05400036.hru 05400036.mgt is003274.sol is003274.chm 05400036.gw               
05400037.hru 05400037.mgt is003275.sol is003275.chm 05400037.gw               
05400038.hru 05400038.mgt is003276.sol is003276.chm 05400038.gw               
05400039.hru 05400039.mgt is003277.sol is003277.chm 05400039.gw               
05400040.hru 05400040.mgt is003278.sol is003278.chm 05400040.gw               
