.sub file Subbasin:22 Fri Feb 23 14:09:21 2007 AVSWATX2003 - SWAT interface MDL
   135.16002
Written by i_SWAT 2016-03-10 12:24:31
!!Climate
  42.499
 378.060
       3
       3
       3
       3
       3
is00022.wgn
0


   0.000   0.000   0.000   0.000   0.000   0.000   0.000   0.000   0.000   0.000

   0.000   0.000   0.000   0.000   0.000   0.000   0.000   0.000   0.000   0.000

   0.000   0.000   0.000   0.000   0.000   0.000   0.000   0.000   0.000   0.000
   0.000
   0.000
   0.000

  41.616
   0.001
  24.496
   0.500
   0.014

000000022.PND

000000022.WUS

   0.000

   0.000   0.000   0.000   0.000   0.000   0.000

   0.000   0.000   0.000   0.000   0.000   0.000

   0.000   0.000   0.000   0.000   0.000   0.000

   0.000   0.000   0.000   0.000   0.000   0.000

   0.000   0.000   0.000   0.000   0.000   0.000

   0.000   0.000   0.000   0.000   0.000   0.000

   0.000   0.000   0.000   0.000   0.000   0.000

   0.000   0.000   0.000   0.000   0.000   0.000

      25








02200001.hru 02200001.mgt is002895.sol is002895.chm 02200001.gw               
02200002.hru 02200002.mgt is002896.sol is002896.chm 02200002.gw               
02200003.hru 02200003.mgt is002897.sol is002897.chm 02200003.gw               
02200004.hru 02200004.mgt is002898.sol is002898.chm 02200004.gw               
02200005.hru 02200005.mgt is002899.sol is002899.chm 02200005.gw               
02200006.hru 02200006.mgt is002900.sol is002900.chm 02200006.gw               
02200007.hru 02200007.mgt is002901.sol is002901.chm 02200007.gw               
02200008.hru 02200008.mgt is002902.sol is002902.chm 02200008.gw               
02200009.hru 02200009.mgt is002903.sol is002903.chm 02200009.gw               
02200010.hru 02200010.mgt is002904.sol is002904.chm 02200010.gw               
02200011.hru 02200011.mgt is002905.sol is002905.chm 02200011.gw               
02200012.hru 02200012.mgt is002906.sol is002906.chm 02200012.gw               
02200013.hru 02200013.mgt is002907.sol is002907.chm 02200013.gw               
02200014.hru 02200014.mgt is002908.sol is002908.chm 02200014.gw               
02200015.hru 02200015.mgt is002909.sol is002909.chm 02200015.gw               
02200016.hru 02200016.mgt is002910.sol is002910.chm 02200016.gw               
02200017.hru 02200017.mgt is002911.sol is002911.chm 02200017.gw               
02200018.hru 02200018.mgt is002912.sol is002912.chm 02200018.gw               
02200019.hru 02200019.mgt is002913.sol is002913.chm 02200019.gw               
02200020.hru 02200020.mgt is002914.sol is002914.chm 02200020.gw               
02200021.hru 02200021.mgt is002915.sol is002915.chm 02200021.gw               
02200022.hru 02200022.mgt is002916.sol is002916.chm 02200022.gw               
02200023.hru 02200023.mgt is002917.sol is002917.chm 02200023.gw               
02200024.hru 02200024.mgt is002918.sol is002918.chm 02200024.gw               
02200025.hru 02200025.mgt is002919.sol is002919.chm 02200025.gw               
