.sub file Subbasin:84 Fri Feb 23 14:09:28 2007 AVSWATX2003 - SWAT interface MDL
    56.45200
Written by i_SWAT 2016-03-10 12:26:23
!!Climate
  41.582
 293.050
      10
      10
      10
      10
      10
is00084.wgn
0


   0.000   0.000   0.000   0.000   0.000   0.000   0.000   0.000   0.000   0.000

   0.000   0.000   0.000   0.000   0.000   0.000   0.000   0.000   0.000   0.000

   0.000   0.000   0.000   0.000   0.000   0.000   0.000   0.000   0.000   0.000
   0.000
   0.000
   0.000

  22.093
   0.003
  14.508
   0.500
   0.014

000000084.PND

000000084.WUS

   0.000

   0.000   0.000   0.000   0.000   0.000   0.000

   0.000   0.000   0.000   0.000   0.000   0.000

   0.000   0.000   0.000   0.000   0.000   0.000

   0.000   0.000   0.000   0.000   0.000   0.000

   0.000   0.000   0.000   0.000   0.000   0.000

   0.000   0.000   0.000   0.000   0.000   0.000

   0.000   0.000   0.000   0.000   0.000   0.000

   0.000   0.000   0.000   0.000   0.000   0.000

      66








08400001.hru 08400001.mgt is000051.sol is000051.chm 08400001.gw               
08400002.hru 08400002.mgt is000052.sol is000052.chm 08400002.gw               
08400003.hru 08400003.mgt is000053.sol is000053.chm 08400003.gw               
08400004.hru 08400004.mgt is000054.sol is000054.chm 08400004.gw               
08400005.hru 08400005.mgt is000055.sol is000055.chm 08400005.gw               
08400006.hru 08400006.mgt is000056.sol is000056.chm 08400006.gw               
08400007.hru 08400007.mgt is000057.sol is000057.chm 08400007.gw               
08400008.hru 08400008.mgt is000058.sol is000058.chm 08400008.gw               
08400009.hru 08400009.mgt is000059.sol is000059.chm 08400009.gw               
08400010.hru 08400010.mgt is000060.sol is000060.chm 08400010.gw               
08400011.hru 08400011.mgt is000061.sol is000061.chm 08400011.gw               
08400012.hru 08400012.mgt is000062.sol is000062.chm 08400012.gw               
08400013.hru 08400013.mgt is000063.sol is000063.chm 08400013.gw               
08400014.hru 08400014.mgt is000064.sol is000064.chm 08400014.gw               
08400015.hru 08400015.mgt is000065.sol is000065.chm 08400015.gw               
08400016.hru 08400016.mgt is000066.sol is000066.chm 08400016.gw               
08400017.hru 08400017.mgt is000067.sol is000067.chm 08400017.gw               
08400018.hru 08400018.mgt is000068.sol is000068.chm 08400018.gw               
08400019.hru 08400019.mgt is000069.sol is000069.chm 08400019.gw               
08400020.hru 08400020.mgt is000070.sol is000070.chm 08400020.gw               
08400021.hru 08400021.mgt is000071.sol is000071.chm 08400021.gw               
08400022.hru 08400022.mgt is000072.sol is000072.chm 08400022.gw               
08400023.hru 08400023.mgt is000073.sol is000073.chm 08400023.gw               
08400024.hru 08400024.mgt is000074.sol is000074.chm 08400024.gw               
08400025.hru 08400025.mgt is000075.sol is000075.chm 08400025.gw               
08400026.hru 08400026.mgt is000076.sol is000076.chm 08400026.gw               
08400027.hru 08400027.mgt is000077.sol is000077.chm 08400027.gw               
08400028.hru 08400028.mgt is000078.sol is000078.chm 08400028.gw               
08400029.hru 08400029.mgt is000079.sol is000079.chm 08400029.gw               
08400030.hru 08400030.mgt is000080.sol is000080.chm 08400030.gw               
08400031.hru 08400031.mgt is000081.sol is000081.chm 08400031.gw               
08400032.hru 08400032.mgt is000082.sol is000082.chm 08400032.gw               
08400033.hru 08400033.mgt is000083.sol is000083.chm 08400033.gw               
08400034.hru 08400034.mgt is000084.sol is000084.chm 08400034.gw               
08400035.hru 08400035.mgt is000085.sol is000085.chm 08400035.gw               
08400036.hru 08400036.mgt is000086.sol is000086.chm 08400036.gw               
08400037.hru 08400037.mgt is000087.sol is000087.chm 08400037.gw               
08400038.hru 08400038.mgt is000088.sol is000088.chm 08400038.gw               
08400039.hru 08400039.mgt is000089.sol is000089.chm 08400039.gw               
08400040.hru 08400040.mgt is000090.sol is000090.chm 08400040.gw               
08400041.hru 08400041.mgt is000091.sol is000091.chm 08400041.gw               
08400042.hru 08400042.mgt is000092.sol is000092.chm 08400042.gw               
08400043.hru 08400043.mgt is000093.sol is000093.chm 08400043.gw               
08400044.hru 08400044.mgt is000094.sol is000094.chm 08400044.gw               
08400045.hru 08400045.mgt is000095.sol is000095.chm 08400045.gw               
08400046.hru 08400046.mgt is000096.sol is000096.chm 08400046.gw               
08400047.hru 08400047.mgt is000097.sol is000097.chm 08400047.gw               
08400048.hru 08400048.mgt is000098.sol is000098.chm 08400048.gw               
08400049.hru 08400049.mgt is000099.sol is000099.chm 08400049.gw               
08400050.hru 08400050.mgt is000100.sol is000100.chm 08400050.gw               
08400051.hru 08400051.mgt is000101.sol is000101.chm 08400051.gw               
08400052.hru 08400052.mgt is000102.sol is000102.chm 08400052.gw               
08400053.hru 08400053.mgt is000103.sol is000103.chm 08400053.gw               
08400054.hru 08400054.mgt is000104.sol is000104.chm 08400054.gw               
08400055.hru 08400055.mgt is000105.sol is000105.chm 08400055.gw               
08400056.hru 08400056.mgt is000106.sol is000106.chm 08400056.gw               
08400057.hru 08400057.mgt is000107.sol is000107.chm 08400057.gw               
08400058.hru 08400058.mgt is000108.sol is000108.chm 08400058.gw               
08400059.hru 08400059.mgt is000109.sol is000109.chm 08400059.gw               
08400060.hru 08400060.mgt is000110.sol is000110.chm 08400060.gw               
08400061.hru 08400061.mgt is000111.sol is000111.chm 08400061.gw               
08400062.hru 08400062.mgt is000112.sol is000112.chm 08400062.gw               
08400063.hru 08400063.mgt is000113.sol is000113.chm 08400063.gw               
08400064.hru 08400064.mgt is000114.sol is000114.chm 08400064.gw               
08400065.hru 08400065.mgt is000115.sol is000115.chm 08400065.gw               
08400066.hru 08400066.mgt is000116.sol is000116.chm 08400066.gw               
