.sub file Subbasin:111 Fri Feb 23 14:09:31 2007 AVSWATX2003 - SWAT interface MDL
   137.27293
Written by i_SWAT 2016-03-10 12:26:34
!!Climate
  41.556
 244.610
      10
      10
      10
      10
      10
is00111.wgn
0


   0.000   0.000   0.000   0.000   0.000   0.000   0.000   0.000   0.000   0.000

   0.000   0.000   0.000   0.000   0.000   0.000   0.000   0.000   0.000   0.000

   0.000   0.000   0.000   0.000   0.000   0.000   0.000   0.000   0.000   0.000
   0.000
   0.000
   0.000

  31.118
   0.002
  24.725
   0.500
   0.014

000000111.PND

000000111.WUS

   0.000

   0.000   0.000   0.000   0.000   0.000   0.000

   0.000   0.000   0.000   0.000   0.000   0.000

   0.000   0.000   0.000   0.000   0.000   0.000

   0.000   0.000   0.000   0.000   0.000   0.000

   0.000   0.000   0.000   0.000   0.000   0.000

   0.000   0.000   0.000   0.000   0.000   0.000

   0.000   0.000   0.000   0.000   0.000   0.000

   0.000   0.000   0.000   0.000   0.000   0.000

      50








11100001.hru 11100001.mgt is000001.sol is000001.chm 11100001.gw               
11100002.hru 11100002.mgt is000002.sol is000002.chm 11100002.gw               
11100003.hru 11100003.mgt is000003.sol is000003.chm 11100003.gw               
11100004.hru 11100004.mgt is000004.sol is000004.chm 11100004.gw               
11100005.hru 11100005.mgt is000005.sol is000005.chm 11100005.gw               
11100006.hru 11100006.mgt is000006.sol is000006.chm 11100006.gw               
11100007.hru 11100007.mgt is000007.sol is000007.chm 11100007.gw               
11100008.hru 11100008.mgt is000008.sol is000008.chm 11100008.gw               
11100009.hru 11100009.mgt is000009.sol is000009.chm 11100009.gw               
11100010.hru 11100010.mgt is000010.sol is000010.chm 11100010.gw               
11100011.hru 11100011.mgt is000011.sol is000011.chm 11100011.gw               
11100012.hru 11100012.mgt is000012.sol is000012.chm 11100012.gw               
11100013.hru 11100013.mgt is000013.sol is000013.chm 11100013.gw               
11100014.hru 11100014.mgt is000014.sol is000014.chm 11100014.gw               
11100015.hru 11100015.mgt is000015.sol is000015.chm 11100015.gw               
11100016.hru 11100016.mgt is000016.sol is000016.chm 11100016.gw               
11100017.hru 11100017.mgt is000017.sol is000017.chm 11100017.gw               
11100018.hru 11100018.mgt is000018.sol is000018.chm 11100018.gw               
11100019.hru 11100019.mgt is000019.sol is000019.chm 11100019.gw               
11100020.hru 11100020.mgt is000020.sol is000020.chm 11100020.gw               
11100021.hru 11100021.mgt is000021.sol is000021.chm 11100021.gw               
11100022.hru 11100022.mgt is000022.sol is000022.chm 11100022.gw               
11100023.hru 11100023.mgt is000023.sol is000023.chm 11100023.gw               
11100024.hru 11100024.mgt is000024.sol is000024.chm 11100024.gw               
11100025.hru 11100025.mgt is000025.sol is000025.chm 11100025.gw               
11100026.hru 11100026.mgt is000026.sol is000026.chm 11100026.gw               
11100027.hru 11100027.mgt is000027.sol is000027.chm 11100027.gw               
11100028.hru 11100028.mgt is000028.sol is000028.chm 11100028.gw               
11100029.hru 11100029.mgt is000029.sol is000029.chm 11100029.gw               
11100030.hru 11100030.mgt is000030.sol is000030.chm 11100030.gw               
11100031.hru 11100031.mgt is000031.sol is000031.chm 11100031.gw               
11100032.hru 11100032.mgt is000032.sol is000032.chm 11100032.gw               
11100033.hru 11100033.mgt is000033.sol is000033.chm 11100033.gw               
11100034.hru 11100034.mgt is000034.sol is000034.chm 11100034.gw               
11100035.hru 11100035.mgt is000035.sol is000035.chm 11100035.gw               
11100036.hru 11100036.mgt is000036.sol is000036.chm 11100036.gw               
11100037.hru 11100037.mgt is000037.sol is000037.chm 11100037.gw               
11100038.hru 11100038.mgt is000038.sol is000038.chm 11100038.gw               
11100039.hru 11100039.mgt is000039.sol is000039.chm 11100039.gw               
11100040.hru 11100040.mgt is000040.sol is000040.chm 11100040.gw               
11100041.hru 11100041.mgt is000041.sol is000041.chm 11100041.gw               
11100042.hru 11100042.mgt is000042.sol is000042.chm 11100042.gw               
11100043.hru 11100043.mgt is000043.sol is000043.chm 11100043.gw               
11100044.hru 11100044.mgt is000044.sol is000044.chm 11100044.gw               
11100045.hru 11100045.mgt is000045.sol is000045.chm 11100045.gw               
11100046.hru 11100046.mgt is000046.sol is000046.chm 11100046.gw               
11100047.hru 11100047.mgt is000047.sol is000047.chm 11100047.gw               
11100048.hru 11100048.mgt is000048.sol is000048.chm 11100048.gw               
11100049.hru 11100049.mgt is000049.sol is000049.chm 11100049.gw               
11100050.hru 11100050.mgt is000050.sol is000050.chm 11100050.gw               
