.sub file Subbasin:107 Fri Feb 23 14:09:31 2007 AVSWATX2003 - SWAT interface MDL
     6.98600
Written by i_SWAT 2016-03-10 12:26:32
!!Climate
  41.561
 315.730
      11
      11
      11
      11
      11
is00107.wgn
0


   0.000   0.000   0.000   0.000   0.000   0.000   0.000   0.000   0.000   0.000

   0.000   0.000   0.000   0.000   0.000   0.000   0.000   0.000   0.000   0.000

   0.000   0.000   0.000   0.000   0.000   0.000   0.000   0.000   0.000   0.000
   0.000
   0.000
   0.000

   5.427
   0.012
   4.141
   0.500
   0.014

000000107.PND

000000107.WUS

   0.000

   0.000   0.000   0.000   0.000   0.000   0.000

   0.000   0.000   0.000   0.000   0.000   0.000

   0.000   0.000   0.000   0.000   0.000   0.000

   0.000   0.000   0.000   0.000   0.000   0.000

   0.000   0.000   0.000   0.000   0.000   0.000

   0.000   0.000   0.000   0.000   0.000   0.000

   0.000   0.000   0.000   0.000   0.000   0.000

   0.000   0.000   0.000   0.000   0.000   0.000

      54








10700001.hru 10700001.mgt is000552.sol is000552.chm 10700001.gw               
10700002.hru 10700002.mgt is000553.sol is000553.chm 10700002.gw               
10700003.hru 10700003.mgt is000554.sol is000554.chm 10700003.gw               
10700004.hru 10700004.mgt is000555.sol is000555.chm 10700004.gw               
10700005.hru 10700005.mgt is000556.sol is000556.chm 10700005.gw               
10700006.hru 10700006.mgt is000557.sol is000557.chm 10700006.gw               
10700007.hru 10700007.mgt is000558.sol is000558.chm 10700007.gw               
10700008.hru 10700008.mgt is000559.sol is000559.chm 10700008.gw               
10700009.hru 10700009.mgt is000560.sol is000560.chm 10700009.gw               
10700010.hru 10700010.mgt is000561.sol is000561.chm 10700010.gw               
10700011.hru 10700011.mgt is000562.sol is000562.chm 10700011.gw               
10700012.hru 10700012.mgt is000563.sol is000563.chm 10700012.gw               
10700013.hru 10700013.mgt is000564.sol is000564.chm 10700013.gw               
10700014.hru 10700014.mgt is000565.sol is000565.chm 10700014.gw               
10700015.hru 10700015.mgt is000566.sol is000566.chm 10700015.gw               
10700016.hru 10700016.mgt is000567.sol is000567.chm 10700016.gw               
10700017.hru 10700017.mgt is000568.sol is000568.chm 10700017.gw               
10700018.hru 10700018.mgt is000569.sol is000569.chm 10700018.gw               
10700019.hru 10700019.mgt is000570.sol is000570.chm 10700019.gw               
10700020.hru 10700020.mgt is000571.sol is000571.chm 10700020.gw               
10700021.hru 10700021.mgt is000572.sol is000572.chm 10700021.gw               
10700022.hru 10700022.mgt is000573.sol is000573.chm 10700022.gw               
10700023.hru 10700023.mgt is000574.sol is000574.chm 10700023.gw               
10700024.hru 10700024.mgt is000575.sol is000575.chm 10700024.gw               
10700025.hru 10700025.mgt is000576.sol is000576.chm 10700025.gw               
10700026.hru 10700026.mgt is000577.sol is000577.chm 10700026.gw               
10700027.hru 10700027.mgt is000578.sol is000578.chm 10700027.gw               
10700028.hru 10700028.mgt is000579.sol is000579.chm 10700028.gw               
10700029.hru 10700029.mgt is000580.sol is000580.chm 10700029.gw               
10700030.hru 10700030.mgt is000581.sol is000581.chm 10700030.gw               
10700031.hru 10700031.mgt is000582.sol is000582.chm 10700031.gw               
10700032.hru 10700032.mgt is000583.sol is000583.chm 10700032.gw               
10700033.hru 10700033.mgt is000584.sol is000584.chm 10700033.gw               
10700034.hru 10700034.mgt is000585.sol is000585.chm 10700034.gw               
10700035.hru 10700035.mgt is000586.sol is000586.chm 10700035.gw               
10700036.hru 10700036.mgt is000587.sol is000587.chm 10700036.gw               
10700037.hru 10700037.mgt is000588.sol is000588.chm 10700037.gw               
10700038.hru 10700038.mgt is000589.sol is000589.chm 10700038.gw               
10700039.hru 10700039.mgt is000590.sol is000590.chm 10700039.gw               
10700040.hru 10700040.mgt is000591.sol is000591.chm 10700040.gw               
10700041.hru 10700041.mgt is000592.sol is000592.chm 10700041.gw               
10700042.hru 10700042.mgt is000593.sol is000593.chm 10700042.gw               
10700043.hru 10700043.mgt is000594.sol is000594.chm 10700043.gw               
10700044.hru 10700044.mgt is000595.sol is000595.chm 10700044.gw               
10700045.hru 10700045.mgt is000596.sol is000596.chm 10700045.gw               
10700046.hru 10700046.mgt is000597.sol is000597.chm 10700046.gw               
10700047.hru 10700047.mgt is000598.sol is000598.chm 10700047.gw               
10700048.hru 10700048.mgt is000599.sol is000599.chm 10700048.gw               
10700049.hru 10700049.mgt is000600.sol is000600.chm 10700049.gw               
10700050.hru 10700050.mgt is000601.sol is000601.chm 10700050.gw               
10700051.hru 10700051.mgt is000602.sol is000602.chm 10700051.gw               
10700052.hru 10700052.mgt is000603.sol is000603.chm 10700052.gw               
10700053.hru 10700053.mgt is000604.sol is000604.chm 10700053.gw               
10700054.hru 10700054.mgt is000605.sol is000605.chm 10700054.gw               
