.sub file Subbasin:57 Fri Feb 23 14:09:25 2007 AVSWATX2003 - SWAT interface MDL
    45.95900
Written by i_SWAT 2016-03-10 12:25:33
!!Climate
  41.909
 367.390
       6
       6
       6
       6
       6
is00057.wgn
0


   0.000   0.000   0.000   0.000   0.000   0.000   0.000   0.000   0.000   0.000

   0.000   0.000   0.000   0.000   0.000   0.000   0.000   0.000   0.000   0.000

   0.000   0.000   0.000   0.000   0.000   0.000   0.000   0.000   0.000   0.000
   0.000
   0.000
   0.000

  15.746
   0.003
  12.824
   0.500
   0.014

000000057.PND

000000057.WUS

   0.000

   0.000   0.000   0.000   0.000   0.000   0.000

   0.000   0.000   0.000   0.000   0.000   0.000

   0.000   0.000   0.000   0.000   0.000   0.000

   0.000   0.000   0.000   0.000   0.000   0.000

   0.000   0.000   0.000   0.000   0.000   0.000

   0.000   0.000   0.000   0.000   0.000   0.000

   0.000   0.000   0.000   0.000   0.000   0.000

   0.000   0.000   0.000   0.000   0.000   0.000

      24








05700001.hru 05700001.mgt is001398.sol is001398.chm 05700001.gw               
05700002.hru 05700002.mgt is001399.sol is001399.chm 05700002.gw               
05700003.hru 05700003.mgt is001400.sol is001400.chm 05700003.gw               
05700004.hru 05700004.mgt is001401.sol is001401.chm 05700004.gw               
05700005.hru 05700005.mgt is001402.sol is001402.chm 05700005.gw               
05700006.hru 05700006.mgt is001403.sol is001403.chm 05700006.gw               
05700007.hru 05700007.mgt is001404.sol is001404.chm 05700007.gw               
05700008.hru 05700008.mgt is001405.sol is001405.chm 05700008.gw               
05700009.hru 05700009.mgt is001406.sol is001406.chm 05700009.gw               
05700010.hru 05700010.mgt is001407.sol is001407.chm 05700010.gw               
05700011.hru 05700011.mgt is001408.sol is001408.chm 05700011.gw               
05700012.hru 05700012.mgt is001409.sol is001409.chm 05700012.gw               
05700013.hru 05700013.mgt is001410.sol is001410.chm 05700013.gw               
05700014.hru 05700014.mgt is001411.sol is001411.chm 05700014.gw               
05700015.hru 05700015.mgt is001412.sol is001412.chm 05700015.gw               
05700016.hru 05700016.mgt is001413.sol is001413.chm 05700016.gw               
05700017.hru 05700017.mgt is001414.sol is001414.chm 05700017.gw               
05700018.hru 05700018.mgt is001415.sol is001415.chm 05700018.gw               
05700019.hru 05700019.mgt is001416.sol is001416.chm 05700019.gw               
05700020.hru 05700020.mgt is001417.sol is001417.chm 05700020.gw               
05700021.hru 05700021.mgt is001418.sol is001418.chm 05700021.gw               
05700022.hru 05700022.mgt is001419.sol is001419.chm 05700022.gw               
05700023.hru 05700023.mgt is001420.sol is001420.chm 05700023.gw               
05700024.hru 05700024.mgt is001421.sol is001421.chm 05700024.gw               
