.sub file Subbasin:25 Fri Feb 23 14:09:21 2007 AVSWATX2003 - SWAT interface MDL
   106.03998
Written by i_SWAT 2016-03-10 12:24:32
!!Climate
  42.445
 369.670
       4
       4
       4
       4
       4
is00025.wgn
0


   0.000   0.000   0.000   0.000   0.000   0.000   0.000   0.000   0.000   0.000

   0.000   0.000   0.000   0.000   0.000   0.000   0.000   0.000   0.000   0.000

   0.000   0.000   0.000   0.000   0.000   0.000   0.000   0.000   0.000   0.000
   0.000
   0.000
   0.000

  33.844
   0.001
  21.177
   0.500
   0.014

000000025.PND

000000025.WUS

   0.000

   0.000   0.000   0.000   0.000   0.000   0.000

   0.000   0.000   0.000   0.000   0.000   0.000

   0.000   0.000   0.000   0.000   0.000   0.000

   0.000   0.000   0.000   0.000   0.000   0.000

   0.000   0.000   0.000   0.000   0.000   0.000

   0.000   0.000   0.000   0.000   0.000   0.000

   0.000   0.000   0.000   0.000   0.000   0.000

   0.000   0.000   0.000   0.000   0.000   0.000

      15








02500001.hru 02500001.mgt is002405.sol is002405.chm 02500001.gw               
02500002.hru 02500002.mgt is002406.sol is002406.chm 02500002.gw               
02500003.hru 02500003.mgt is002407.sol is002407.chm 02500003.gw               
02500004.hru 02500004.mgt is002408.sol is002408.chm 02500004.gw               
02500005.hru 02500005.mgt is002409.sol is002409.chm 02500005.gw               
02500006.hru 02500006.mgt is002410.sol is002410.chm 02500006.gw               
02500007.hru 02500007.mgt is002411.sol is002411.chm 02500007.gw               
02500008.hru 02500008.mgt is002412.sol is002412.chm 02500008.gw               
02500009.hru 02500009.mgt is002413.sol is002413.chm 02500009.gw               
02500010.hru 02500010.mgt is002414.sol is002414.chm 02500010.gw               
02500011.hru 02500011.mgt is002415.sol is002415.chm 02500011.gw               
02500012.hru 02500012.mgt is002416.sol is002416.chm 02500012.gw               
02500013.hru 02500013.mgt is002417.sol is002417.chm 02500013.gw               
02500014.hru 02500014.mgt is002418.sol is002418.chm 02500014.gw               
02500015.hru 02500015.mgt is002419.sol is002419.chm 02500015.gw               
