.sub file Subbasin:45 Fri Feb 23 14:09:23 2007 AVSWATX2003 - SWAT interface MDL
   103.05200
Written by i_SWAT 2016-03-10 12:24:40
!!Climate
  42.064
 378.600
       6
       6
       6
       6
       6
is00045.wgn
0


   0.000   0.000   0.000   0.000   0.000   0.000   0.000   0.000   0.000   0.000

   0.000   0.000   0.000   0.000   0.000   0.000   0.000   0.000   0.000   0.000

   0.000   0.000   0.000   0.000   0.000   0.000   0.000   0.000   0.000   0.000
   0.000
   0.000
   0.000

  23.727
   0.003
  20.817
   0.500
   0.014

000000045.PND

000000045.WUS

   0.000

   0.000   0.000   0.000   0.000   0.000   0.000

   0.000   0.000   0.000   0.000   0.000   0.000

   0.000   0.000   0.000   0.000   0.000   0.000

   0.000   0.000   0.000   0.000   0.000   0.000

   0.000   0.000   0.000   0.000   0.000   0.000

   0.000   0.000   0.000   0.000   0.000   0.000

   0.000   0.000   0.000   0.000   0.000   0.000

   0.000   0.000   0.000   0.000   0.000   0.000

      49








04500001.hru 04500001.mgt is001288.sol is001288.chm 04500001.gw               
04500002.hru 04500002.mgt is001289.sol is001289.chm 04500002.gw               
04500003.hru 04500003.mgt is001290.sol is001290.chm 04500003.gw               
04500004.hru 04500004.mgt is001291.sol is001291.chm 04500004.gw               
04500005.hru 04500005.mgt is001292.sol is001292.chm 04500005.gw               
04500006.hru 04500006.mgt is001293.sol is001293.chm 04500006.gw               
04500007.hru 04500007.mgt is001294.sol is001294.chm 04500007.gw               
04500008.hru 04500008.mgt is001295.sol is001295.chm 04500008.gw               
04500009.hru 04500009.mgt is001296.sol is001296.chm 04500009.gw               
04500010.hru 04500010.mgt is001297.sol is001297.chm 04500010.gw               
04500011.hru 04500011.mgt is001298.sol is001298.chm 04500011.gw               
04500012.hru 04500012.mgt is001299.sol is001299.chm 04500012.gw               
04500013.hru 04500013.mgt is001300.sol is001300.chm 04500013.gw               
04500014.hru 04500014.mgt is001301.sol is001301.chm 04500014.gw               
04500015.hru 04500015.mgt is001302.sol is001302.chm 04500015.gw               
04500016.hru 04500016.mgt is001303.sol is001303.chm 04500016.gw               
04500017.hru 04500017.mgt is001304.sol is001304.chm 04500017.gw               
04500018.hru 04500018.mgt is001305.sol is001305.chm 04500018.gw               
04500019.hru 04500019.mgt is001306.sol is001306.chm 04500019.gw               
04500020.hru 04500020.mgt is001307.sol is001307.chm 04500020.gw               
04500021.hru 04500021.mgt is001308.sol is001308.chm 04500021.gw               
04500022.hru 04500022.mgt is001309.sol is001309.chm 04500022.gw               
04500023.hru 04500023.mgt is001310.sol is001310.chm 04500023.gw               
04500024.hru 04500024.mgt is001311.sol is001311.chm 04500024.gw               
04500025.hru 04500025.mgt is001312.sol is001312.chm 04500025.gw               
04500026.hru 04500026.mgt is001313.sol is001313.chm 04500026.gw               
04500027.hru 04500027.mgt is001314.sol is001314.chm 04500027.gw               
04500028.hru 04500028.mgt is001315.sol is001315.chm 04500028.gw               
04500029.hru 04500029.mgt is001316.sol is001316.chm 04500029.gw               
04500030.hru 04500030.mgt is001317.sol is001317.chm 04500030.gw               
04500031.hru 04500031.mgt is001318.sol is001318.chm 04500031.gw               
04500032.hru 04500032.mgt is001319.sol is001319.chm 04500032.gw               
04500033.hru 04500033.mgt is001320.sol is001320.chm 04500033.gw               
04500034.hru 04500034.mgt is001321.sol is001321.chm 04500034.gw               
04500035.hru 04500035.mgt is001322.sol is001322.chm 04500035.gw               
04500036.hru 04500036.mgt is001323.sol is001323.chm 04500036.gw               
04500037.hru 04500037.mgt is001324.sol is001324.chm 04500037.gw               
04500038.hru 04500038.mgt is001325.sol is001325.chm 04500038.gw               
04500039.hru 04500039.mgt is001326.sol is001326.chm 04500039.gw               
04500040.hru 04500040.mgt is001327.sol is001327.chm 04500040.gw               
04500041.hru 04500041.mgt is001328.sol is001328.chm 04500041.gw               
04500042.hru 04500042.mgt is001329.sol is001329.chm 04500042.gw               
04500043.hru 04500043.mgt is001330.sol is001330.chm 04500043.gw               
04500044.hru 04500044.mgt is001331.sol is001331.chm 04500044.gw               
04500045.hru 04500045.mgt is001332.sol is001332.chm 04500045.gw               
04500046.hru 04500046.mgt is001333.sol is001333.chm 04500046.gw               
04500047.hru 04500047.mgt is001334.sol is001334.chm 04500047.gw               
04500048.hru 04500048.mgt is001335.sol is001335.chm 04500048.gw               
04500049.hru 04500049.mgt is001336.sol is001336.chm 04500049.gw               
