.sub file Subbasin:11 Fri Feb 23 14:09:20 2007 AVSWATX2003 - SWAT interface MDL
   132.27499
Written by i_SWAT 2016-03-10 12:24:27
!!Climate
  42.655
 397.050
       1
       1
       1
       1
       1
is00011.wgn
0


   0.000   0.000   0.000   0.000   0.000   0.000   0.000   0.000   0.000   0.000

   0.000   0.000   0.000   0.000   0.000   0.000   0.000   0.000   0.000   0.000

   0.000   0.000   0.000   0.000   0.000   0.000   0.000   0.000   0.000   0.000
   0.000
   0.000
   0.000

  27.181
   0.002
  24.181
   0.500
   0.014

000000011.PND

000000011.WUS

   0.000

   0.000   0.000   0.000   0.000   0.000   0.000

   0.000   0.000   0.000   0.000   0.000   0.000

   0.000   0.000   0.000   0.000   0.000   0.000

   0.000   0.000   0.000   0.000   0.000   0.000

   0.000   0.000   0.000   0.000   0.000   0.000

   0.000   0.000   0.000   0.000   0.000   0.000

   0.000   0.000   0.000   0.000   0.000   0.000

   0.000   0.000   0.000   0.000   0.000   0.000

      23








01100001.hru 01100001.mgt is003005.sol is003005.chm 01100001.gw               
01100002.hru 01100002.mgt is003006.sol is003006.chm 01100002.gw               
01100003.hru 01100003.mgt is003007.sol is003007.chm 01100003.gw               
01100004.hru 01100004.mgt is003008.sol is003008.chm 01100004.gw               
01100005.hru 01100005.mgt is003009.sol is003009.chm 01100005.gw               
01100006.hru 01100006.mgt is003010.sol is003010.chm 01100006.gw               
01100007.hru 01100007.mgt is003011.sol is003011.chm 01100007.gw               
01100008.hru 01100008.mgt is003012.sol is003012.chm 01100008.gw               
01100009.hru 01100009.mgt is003013.sol is003013.chm 01100009.gw               
01100010.hru 01100010.mgt is003014.sol is003014.chm 01100010.gw               
01100011.hru 01100011.mgt is003015.sol is003015.chm 01100011.gw               
01100012.hru 01100012.mgt is003016.sol is003016.chm 01100012.gw               
01100013.hru 01100013.mgt is003017.sol is003017.chm 01100013.gw               
01100014.hru 01100014.mgt is003018.sol is003018.chm 01100014.gw               
01100015.hru 01100015.mgt is003019.sol is003019.chm 01100015.gw               
01100016.hru 01100016.mgt is003020.sol is003020.chm 01100016.gw               
01100017.hru 01100017.mgt is003021.sol is003021.chm 01100017.gw               
01100018.hru 01100018.mgt is003022.sol is003022.chm 01100018.gw               
01100019.hru 01100019.mgt is003023.sol is003023.chm 01100019.gw               
01100020.hru 01100020.mgt is003024.sol is003024.chm 01100020.gw               
01100021.hru 01100021.mgt is003025.sol is003025.chm 01100021.gw               
01100022.hru 01100022.mgt is003026.sol is003026.chm 01100022.gw               
01100023.hru 01100023.mgt is003027.sol is003027.chm 01100023.gw               
