.sub file Subbasin:8 Fri Feb 23 14:09:19 2007 AVSWATX2003 - SWAT interface MDL
    49.12000
Written by i_SWAT 2016-03-10 12:24:26
!!Climate
  42.742
 398.180
       1
       1
       1
       1
       1
is00008.wgn
0


   0.000   0.000   0.000   0.000   0.000   0.000   0.000   0.000   0.000   0.000

   0.000   0.000   0.000   0.000   0.000   0.000   0.000   0.000   0.000   0.000

   0.000   0.000   0.000   0.000   0.000   0.000   0.000   0.000   0.000   0.000
   0.000
   0.000
   0.000

  13.631
   0.002
  13.346
   0.500
   0.014

000000008.PND

000000008.WUS

   0.000

   0.000   0.000   0.000   0.000   0.000   0.000

   0.000   0.000   0.000   0.000   0.000   0.000

   0.000   0.000   0.000   0.000   0.000   0.000

   0.000   0.000   0.000   0.000   0.000   0.000

   0.000   0.000   0.000   0.000   0.000   0.000

   0.000   0.000   0.000   0.000   0.000   0.000

   0.000   0.000   0.000   0.000   0.000   0.000

   0.000   0.000   0.000   0.000   0.000   0.000

      14








00800001.hru 00800001.mgt is002809.sol is002809.chm 00800001.gw               
00800002.hru 00800002.mgt is002810.sol is002810.chm 00800002.gw               
00800003.hru 00800003.mgt is002811.sol is002811.chm 00800003.gw               
00800004.hru 00800004.mgt is002812.sol is002812.chm 00800004.gw               
00800005.hru 00800005.mgt is002813.sol is002813.chm 00800005.gw               
00800006.hru 00800006.mgt is002814.sol is002814.chm 00800006.gw               
00800007.hru 00800007.mgt is002815.sol is002815.chm 00800007.gw               
00800008.hru 00800008.mgt is002816.sol is002816.chm 00800008.gw               
00800009.hru 00800009.mgt is002817.sol is002817.chm 00800009.gw               
00800010.hru 00800010.mgt is002818.sol is002818.chm 00800010.gw               
00800011.hru 00800011.mgt is002819.sol is002819.chm 00800011.gw               
00800012.hru 00800012.mgt is002820.sol is002820.chm 00800012.gw               
00800013.hru 00800013.mgt is002821.sol is002821.chm 00800013.gw               
00800014.hru 00800014.mgt is002822.sol is002822.chm 00800014.gw               
