.sub file Subbasin:97 Fri Feb 23 14:09:30 2007 AVSWATX2003 - SWAT interface MDL
   101.47299
Written by i_SWAT 2016-03-10 12:26:27
!!Climate
  42.002
 411.170
       6
       6
       6
       6
       6
is00097.wgn
0


   0.000   0.000   0.000   0.000   0.000   0.000   0.000   0.000   0.000   0.000

   0.000   0.000   0.000   0.000   0.000   0.000   0.000   0.000   0.000   0.000

   0.000   0.000   0.000   0.000   0.000   0.000   0.000   0.000   0.000   0.000
   0.000
   0.000
   0.000

  24.195
   0.002
  20.625
   0.500
   0.014

000000097.PND

000000097.WUS

   0.000

   0.000   0.000   0.000   0.000   0.000   0.000

   0.000   0.000   0.000   0.000   0.000   0.000

   0.000   0.000   0.000   0.000   0.000   0.000

   0.000   0.000   0.000   0.000   0.000   0.000

   0.000   0.000   0.000   0.000   0.000   0.000

   0.000   0.000   0.000   0.000   0.000   0.000

   0.000   0.000   0.000   0.000   0.000   0.000

   0.000   0.000   0.000   0.000   0.000   0.000

      29








09700001.hru 09700001.mgt is001029.sol is001029.chm 09700001.gw               
09700002.hru 09700002.mgt is001030.sol is001030.chm 09700002.gw               
09700003.hru 09700003.mgt is001031.sol is001031.chm 09700003.gw               
09700004.hru 09700004.mgt is001032.sol is001032.chm 09700004.gw               
09700005.hru 09700005.mgt is001033.sol is001033.chm 09700005.gw               
09700006.hru 09700006.mgt is001034.sol is001034.chm 09700006.gw               
09700007.hru 09700007.mgt is001035.sol is001035.chm 09700007.gw               
09700008.hru 09700008.mgt is001036.sol is001036.chm 09700008.gw               
09700009.hru 09700009.mgt is001037.sol is001037.chm 09700009.gw               
09700010.hru 09700010.mgt is001038.sol is001038.chm 09700010.gw               
09700011.hru 09700011.mgt is001039.sol is001039.chm 09700011.gw               
09700012.hru 09700012.mgt is001040.sol is001040.chm 09700012.gw               
09700013.hru 09700013.mgt is001041.sol is001041.chm 09700013.gw               
09700014.hru 09700014.mgt is001042.sol is001042.chm 09700014.gw               
09700015.hru 09700015.mgt is001043.sol is001043.chm 09700015.gw               
09700016.hru 09700016.mgt is001044.sol is001044.chm 09700016.gw               
09700017.hru 09700017.mgt is001045.sol is001045.chm 09700017.gw               
09700018.hru 09700018.mgt is001046.sol is001046.chm 09700018.gw               
09700019.hru 09700019.mgt is001047.sol is001047.chm 09700019.gw               
09700020.hru 09700020.mgt is001048.sol is001048.chm 09700020.gw               
09700021.hru 09700021.mgt is001049.sol is001049.chm 09700021.gw               
09700022.hru 09700022.mgt is001050.sol is001050.chm 09700022.gw               
09700023.hru 09700023.mgt is001051.sol is001051.chm 09700023.gw               
09700024.hru 09700024.mgt is001052.sol is001052.chm 09700024.gw               
09700025.hru 09700025.mgt is001053.sol is001053.chm 09700025.gw               
09700026.hru 09700026.mgt is001054.sol is001054.chm 09700026.gw               
09700027.hru 09700027.mgt is001055.sol is001055.chm 09700027.gw               
09700028.hru 09700028.mgt is001056.sol is001056.chm 09700028.gw               
09700029.hru 09700029.mgt is001057.sol is001057.chm 09700029.gw               
