.sub file Subbasin:94 Fri Feb 23 14:09:29 2007 AVSWATX2003 - SWAT interface MDL
   142.30301
Written by i_SWAT 2016-03-10 12:26:25
!!Climate
  42.215
 343.470
       4
       4
       4
       4
       4
is00094.wgn
0


   0.000   0.000   0.000   0.000   0.000   0.000   0.000   0.000   0.000   0.000

   0.000   0.000   0.000   0.000   0.000   0.000   0.000   0.000   0.000   0.000

   0.000   0.000   0.000   0.000   0.000   0.000   0.000   0.000   0.000   0.000
   0.000
   0.000
   0.000

  25.865
   0.001
  25.265
   0.500
   0.014

000000094.PND

000000094.WUS

   0.000

   0.000   0.000   0.000   0.000   0.000   0.000

   0.000   0.000   0.000   0.000   0.000   0.000

   0.000   0.000   0.000   0.000   0.000   0.000

   0.000   0.000   0.000   0.000   0.000   0.000

   0.000   0.000   0.000   0.000   0.000   0.000

   0.000   0.000   0.000   0.000   0.000   0.000

   0.000   0.000   0.000   0.000   0.000   0.000

   0.000   0.000   0.000   0.000   0.000   0.000

      28








09400001.hru 09400001.mgt is003325.sol is003325.chm 09400001.gw               
09400002.hru 09400002.mgt is003326.sol is003326.chm 09400002.gw               
09400003.hru 09400003.mgt is003327.sol is003327.chm 09400003.gw               
09400004.hru 09400004.mgt is003328.sol is003328.chm 09400004.gw               
09400005.hru 09400005.mgt is003329.sol is003329.chm 09400005.gw               
09400006.hru 09400006.mgt is003330.sol is003330.chm 09400006.gw               
09400007.hru 09400007.mgt is003331.sol is003331.chm 09400007.gw               
09400008.hru 09400008.mgt is003332.sol is003332.chm 09400008.gw               
09400009.hru 09400009.mgt is003333.sol is003333.chm 09400009.gw               
09400010.hru 09400010.mgt is003334.sol is003334.chm 09400010.gw               
09400011.hru 09400011.mgt is003335.sol is003335.chm 09400011.gw               
09400012.hru 09400012.mgt is003336.sol is003336.chm 09400012.gw               
09400013.hru 09400013.mgt is003337.sol is003337.chm 09400013.gw               
09400014.hru 09400014.mgt is003338.sol is003338.chm 09400014.gw               
09400015.hru 09400015.mgt is003339.sol is003339.chm 09400015.gw               
09400016.hru 09400016.mgt is003340.sol is003340.chm 09400016.gw               
09400017.hru 09400017.mgt is003341.sol is003341.chm 09400017.gw               
09400018.hru 09400018.mgt is003342.sol is003342.chm 09400018.gw               
09400019.hru 09400019.mgt is003343.sol is003343.chm 09400019.gw               
09400020.hru 09400020.mgt is003344.sol is003344.chm 09400020.gw               
09400021.hru 09400021.mgt is003345.sol is003345.chm 09400021.gw               
09400022.hru 09400022.mgt is003346.sol is003346.chm 09400022.gw               
09400023.hru 09400023.mgt is003347.sol is003347.chm 09400023.gw               
09400024.hru 09400024.mgt is003348.sol is003348.chm 09400024.gw               
09400025.hru 09400025.mgt is003349.sol is003349.chm 09400025.gw               
09400026.hru 09400026.mgt is003350.sol is003350.chm 09400026.gw               
09400027.hru 09400027.mgt is003351.sol is003351.chm 09400027.gw               
09400028.hru 09400028.mgt is003352.sol is003352.chm 09400028.gw               
