.sub file Subbasin:21 Fri Feb 23 14:09:21 2007 AVSWATX2003 - SWAT interface MDL
    61.92299
Written by i_SWAT 2016-03-10 12:24:30
!!Climate
  42.482
 374.990
       4
       4
       4
       4
       4
is00021.wgn
0


   0.000   0.000   0.000   0.000   0.000   0.000   0.000   0.000   0.000   0.000

   0.000   0.000   0.000   0.000   0.000   0.000   0.000   0.000   0.000   0.000

   0.000   0.000   0.000   0.000   0.000   0.000   0.000   0.000   0.000   0.000
   0.000
   0.000
   0.000

  28.598
   0.001
  15.336
   0.500
   0.014

000000021.PND

000000021.WUS

   0.000

   0.000   0.000   0.000   0.000   0.000   0.000

   0.000   0.000   0.000   0.000   0.000   0.000

   0.000   0.000   0.000   0.000   0.000   0.000

   0.000   0.000   0.000   0.000   0.000   0.000

   0.000   0.000   0.000   0.000   0.000   0.000

   0.000   0.000   0.000   0.000   0.000   0.000

   0.000   0.000   0.000   0.000   0.000   0.000

   0.000   0.000   0.000   0.000   0.000   0.000

      19








02100001.hru 02100001.mgt is002534.sol is002534.chm 02100001.gw               
02100002.hru 02100002.mgt is002535.sol is002535.chm 02100002.gw               
02100003.hru 02100003.mgt is002536.sol is002536.chm 02100003.gw               
02100004.hru 02100004.mgt is002537.sol is002537.chm 02100004.gw               
02100005.hru 02100005.mgt is002538.sol is002538.chm 02100005.gw               
02100006.hru 02100006.mgt is002539.sol is002539.chm 02100006.gw               
02100007.hru 02100007.mgt is002540.sol is002540.chm 02100007.gw               
02100008.hru 02100008.mgt is002541.sol is002541.chm 02100008.gw               
02100009.hru 02100009.mgt is002542.sol is002542.chm 02100009.gw               
02100010.hru 02100010.mgt is002543.sol is002543.chm 02100010.gw               
02100011.hru 02100011.mgt is002544.sol is002544.chm 02100011.gw               
02100012.hru 02100012.mgt is002545.sol is002545.chm 02100012.gw               
02100013.hru 02100013.mgt is002546.sol is002546.chm 02100013.gw               
02100014.hru 02100014.mgt is002547.sol is002547.chm 02100014.gw               
02100015.hru 02100015.mgt is002548.sol is002548.chm 02100015.gw               
02100016.hru 02100016.mgt is002549.sol is002549.chm 02100016.gw               
02100017.hru 02100017.mgt is002550.sol is002550.chm 02100017.gw               
02100018.hru 02100018.mgt is002551.sol is002551.chm 02100018.gw               
02100019.hru 02100019.mgt is002552.sol is002552.chm 02100019.gw               
