.sub file Subbasin:80 Fri Feb 23 14:09:28 2007 AVSWATX2003 - SWAT interface MDL
    65.50901
Written by i_SWAT 2016-03-10 12:26:21
!!Climate
  41.515
 324.040
      11
      11
      11
      11
      11
is00080.wgn
0


   0.000   0.000   0.000   0.000   0.000   0.000   0.000   0.000   0.000   0.000

   0.000   0.000   0.000   0.000   0.000   0.000   0.000   0.000   0.000   0.000

   0.000   0.000   0.000   0.000   0.000   0.000   0.000   0.000   0.000   0.000
   0.000
   0.000
   0.000

  19.941
   0.004
  15.863
   0.500
   0.014

000000080.PND

000000080.WUS

   0.000

   0.000   0.000   0.000   0.000   0.000   0.000

   0.000   0.000   0.000   0.000   0.000   0.000

   0.000   0.000   0.000   0.000   0.000   0.000

   0.000   0.000   0.000   0.000   0.000   0.000

   0.000   0.000   0.000   0.000   0.000   0.000

   0.000   0.000   0.000   0.000   0.000   0.000

   0.000   0.000   0.000   0.000   0.000   0.000

   0.000   0.000   0.000   0.000   0.000   0.000

      61








08000001.hru 08000001.mgt is000491.sol is000491.chm 08000001.gw               
08000002.hru 08000002.mgt is000492.sol is000492.chm 08000002.gw               
08000003.hru 08000003.mgt is000493.sol is000493.chm 08000003.gw               
08000004.hru 08000004.mgt is000494.sol is000494.chm 08000004.gw               
08000005.hru 08000005.mgt is000495.sol is000495.chm 08000005.gw               
08000006.hru 08000006.mgt is000496.sol is000496.chm 08000006.gw               
08000007.hru 08000007.mgt is000497.sol is000497.chm 08000007.gw               
08000008.hru 08000008.mgt is000498.sol is000498.chm 08000008.gw               
08000009.hru 08000009.mgt is000499.sol is000499.chm 08000009.gw               
08000010.hru 08000010.mgt is000500.sol is000500.chm 08000010.gw               
08000011.hru 08000011.mgt is000501.sol is000501.chm 08000011.gw               
08000012.hru 08000012.mgt is000502.sol is000502.chm 08000012.gw               
08000013.hru 08000013.mgt is000503.sol is000503.chm 08000013.gw               
08000014.hru 08000014.mgt is000504.sol is000504.chm 08000014.gw               
08000015.hru 08000015.mgt is000505.sol is000505.chm 08000015.gw               
08000016.hru 08000016.mgt is000506.sol is000506.chm 08000016.gw               
08000017.hru 08000017.mgt is000507.sol is000507.chm 08000017.gw               
08000018.hru 08000018.mgt is000508.sol is000508.chm 08000018.gw               
08000019.hru 08000019.mgt is000509.sol is000509.chm 08000019.gw               
08000020.hru 08000020.mgt is000510.sol is000510.chm 08000020.gw               
08000021.hru 08000021.mgt is000511.sol is000511.chm 08000021.gw               
08000022.hru 08000022.mgt is000512.sol is000512.chm 08000022.gw               
08000023.hru 08000023.mgt is000513.sol is000513.chm 08000023.gw               
08000024.hru 08000024.mgt is000514.sol is000514.chm 08000024.gw               
08000025.hru 08000025.mgt is000515.sol is000515.chm 08000025.gw               
08000026.hru 08000026.mgt is000516.sol is000516.chm 08000026.gw               
08000027.hru 08000027.mgt is000517.sol is000517.chm 08000027.gw               
08000028.hru 08000028.mgt is000518.sol is000518.chm 08000028.gw               
08000029.hru 08000029.mgt is000519.sol is000519.chm 08000029.gw               
08000030.hru 08000030.mgt is000520.sol is000520.chm 08000030.gw               
08000031.hru 08000031.mgt is000521.sol is000521.chm 08000031.gw               
08000032.hru 08000032.mgt is000522.sol is000522.chm 08000032.gw               
08000033.hru 08000033.mgt is000523.sol is000523.chm 08000033.gw               
08000034.hru 08000034.mgt is000524.sol is000524.chm 08000034.gw               
08000035.hru 08000035.mgt is000525.sol is000525.chm 08000035.gw               
08000036.hru 08000036.mgt is000526.sol is000526.chm 08000036.gw               
08000037.hru 08000037.mgt is000527.sol is000527.chm 08000037.gw               
08000038.hru 08000038.mgt is000528.sol is000528.chm 08000038.gw               
08000039.hru 08000039.mgt is000529.sol is000529.chm 08000039.gw               
08000040.hru 08000040.mgt is000530.sol is000530.chm 08000040.gw               
08000041.hru 08000041.mgt is000531.sol is000531.chm 08000041.gw               
08000042.hru 08000042.mgt is000532.sol is000532.chm 08000042.gw               
08000043.hru 08000043.mgt is000533.sol is000533.chm 08000043.gw               
08000044.hru 08000044.mgt is000534.sol is000534.chm 08000044.gw               
08000045.hru 08000045.mgt is000535.sol is000535.chm 08000045.gw               
08000046.hru 08000046.mgt is000536.sol is000536.chm 08000046.gw               
08000047.hru 08000047.mgt is000537.sol is000537.chm 08000047.gw               
08000048.hru 08000048.mgt is000538.sol is000538.chm 08000048.gw               
08000049.hru 08000049.mgt is000539.sol is000539.chm 08000049.gw               
08000050.hru 08000050.mgt is000540.sol is000540.chm 08000050.gw               
08000051.hru 08000051.mgt is000541.sol is000541.chm 08000051.gw               
08000052.hru 08000052.mgt is000542.sol is000542.chm 08000052.gw               
08000053.hru 08000053.mgt is000543.sol is000543.chm 08000053.gw               
08000054.hru 08000054.mgt is000544.sol is000544.chm 08000054.gw               
08000055.hru 08000055.mgt is000545.sol is000545.chm 08000055.gw               
08000056.hru 08000056.mgt is000546.sol is000546.chm 08000056.gw               
08000057.hru 08000057.mgt is000547.sol is000547.chm 08000057.gw               
08000058.hru 08000058.mgt is000548.sol is000548.chm 08000058.gw               
08000059.hru 08000059.mgt is000549.sol is000549.chm 08000059.gw               
08000060.hru 08000060.mgt is000550.sol is000550.chm 08000060.gw               
08000061.hru 08000061.mgt is000551.sol is000551.chm 08000061.gw               
