.sub file Subbasin:112 Fri Feb 23 14:09:32 2007 AVSWATX2003 - SWAT interface MDL
    91.17799
Written by i_SWAT 2016-03-10 12:26:41
!!Climate
  41.992
 349.690
       7
       7
       7
       7
       7
is00112.wgn
0


   0.000   0.000   0.000   0.000   0.000   0.000   0.000   0.000   0.000   0.000

   0.000   0.000   0.000   0.000   0.000   0.000   0.000   0.000   0.000   0.000

   0.000   0.000   0.000   0.000   0.000   0.000   0.000   0.000   0.000   0.000
   0.000
   0.000
   0.000

  25.517
   0.003
  19.343
   0.500
   0.014

000000112.PND

000000112.WUS

   0.000

   0.000   0.000   0.000   0.000   0.000   0.000

   0.000   0.000   0.000   0.000   0.000   0.000

   0.000   0.000   0.000   0.000   0.000   0.000

   0.000   0.000   0.000   0.000   0.000   0.000

   0.000   0.000   0.000   0.000   0.000   0.000

   0.000   0.000   0.000   0.000   0.000   0.000

   0.000   0.000   0.000   0.000   0.000   0.000

   0.000   0.000   0.000   0.000   0.000   0.000

      42








11200001.hru 11200001.mgt is001907.sol is001907.chm 11200001.gw               
11200002.hru 11200002.mgt is001908.sol is001908.chm 11200002.gw               
11200003.hru 11200003.mgt is001909.sol is001909.chm 11200003.gw               
11200004.hru 11200004.mgt is001910.sol is001910.chm 11200004.gw               
11200005.hru 11200005.mgt is001911.sol is001911.chm 11200005.gw               
11200006.hru 11200006.mgt is001912.sol is001912.chm 11200006.gw               
11200007.hru 11200007.mgt is001913.sol is001913.chm 11200007.gw               
11200008.hru 11200008.mgt is001914.sol is001914.chm 11200008.gw               
11200009.hru 11200009.mgt is001915.sol is001915.chm 11200009.gw               
11200010.hru 11200010.mgt is001916.sol is001916.chm 11200010.gw               
11200011.hru 11200011.mgt is001917.sol is001917.chm 11200011.gw               
11200012.hru 11200012.mgt is001918.sol is001918.chm 11200012.gw               
11200013.hru 11200013.mgt is001919.sol is001919.chm 11200013.gw               
11200014.hru 11200014.mgt is001920.sol is001920.chm 11200014.gw               
11200015.hru 11200015.mgt is001921.sol is001921.chm 11200015.gw               
11200016.hru 11200016.mgt is001922.sol is001922.chm 11200016.gw               
11200017.hru 11200017.mgt is001923.sol is001923.chm 11200017.gw               
11200018.hru 11200018.mgt is001924.sol is001924.chm 11200018.gw               
11200019.hru 11200019.mgt is001925.sol is001925.chm 11200019.gw               
11200020.hru 11200020.mgt is001926.sol is001926.chm 11200020.gw               
11200021.hru 11200021.mgt is001927.sol is001927.chm 11200021.gw               
11200022.hru 11200022.mgt is001928.sol is001928.chm 11200022.gw               
11200023.hru 11200023.mgt is001929.sol is001929.chm 11200023.gw               
11200024.hru 11200024.mgt is001930.sol is001930.chm 11200024.gw               
11200025.hru 11200025.mgt is001931.sol is001931.chm 11200025.gw               
11200026.hru 11200026.mgt is001932.sol is001932.chm 11200026.gw               
11200027.hru 11200027.mgt is001933.sol is001933.chm 11200027.gw               
11200028.hru 11200028.mgt is001934.sol is001934.chm 11200028.gw               
11200029.hru 11200029.mgt is001935.sol is001935.chm 11200029.gw               
11200030.hru 11200030.mgt is001936.sol is001936.chm 11200030.gw               
11200031.hru 11200031.mgt is001937.sol is001937.chm 11200031.gw               
11200032.hru 11200032.mgt is001938.sol is001938.chm 11200032.gw               
11200033.hru 11200033.mgt is001939.sol is001939.chm 11200033.gw               
11200034.hru 11200034.mgt is001940.sol is001940.chm 11200034.gw               
11200035.hru 11200035.mgt is001941.sol is001941.chm 11200035.gw               
11200036.hru 11200036.mgt is001942.sol is001942.chm 11200036.gw               
11200037.hru 11200037.mgt is001943.sol is001943.chm 11200037.gw               
11200038.hru 11200038.mgt is001944.sol is001944.chm 11200038.gw               
11200039.hru 11200039.mgt is001945.sol is001945.chm 11200039.gw               
11200040.hru 11200040.mgt is001946.sol is001946.chm 11200040.gw               
11200041.hru 11200041.mgt is001947.sol is001947.chm 11200041.gw               
11200042.hru 11200042.mgt is001948.sol is001948.chm 11200042.gw               
