.sub file Subbasin:48 Fri Feb 23 14:09:24 2007 AVSWATX2003 - SWAT interface MDL
    86.57400
Written by i_SWAT 2016-03-10 12:24:48
!!Climate
  42.134
 329.240
       7
       7
       7
       7
       7
is00048.wgn
0


   0.000   0.000   0.000   0.000   0.000   0.000   0.000   0.000   0.000   0.000

   0.000   0.000   0.000   0.000   0.000   0.000   0.000   0.000   0.000   0.000

   0.000   0.000   0.000   0.000   0.000   0.000   0.000   0.000   0.000   0.000
   0.000
   0.000
   0.000

  24.094
   0.001
  18.751
   0.500
   0.014

000000048.PND

000000048.WUS

   0.000

   0.000   0.000   0.000   0.000   0.000   0.000

   0.000   0.000   0.000   0.000   0.000   0.000

   0.000   0.000   0.000   0.000   0.000   0.000

   0.000   0.000   0.000   0.000   0.000   0.000

   0.000   0.000   0.000   0.000   0.000   0.000

   0.000   0.000   0.000   0.000   0.000   0.000

   0.000   0.000   0.000   0.000   0.000   0.000

   0.000   0.000   0.000   0.000   0.000   0.000

      19








04800001.hru 04800001.mgt is003279.sol is003279.chm 04800001.gw               
04800002.hru 04800002.mgt is003280.sol is003280.chm 04800002.gw               
04800003.hru 04800003.mgt is003281.sol is003281.chm 04800003.gw               
04800004.hru 04800004.mgt is003282.sol is003282.chm 04800004.gw               
04800005.hru 04800005.mgt is003283.sol is003283.chm 04800005.gw               
04800006.hru 04800006.mgt is003284.sol is003284.chm 04800006.gw               
04800007.hru 04800007.mgt is003285.sol is003285.chm 04800007.gw               
04800008.hru 04800008.mgt is003286.sol is003286.chm 04800008.gw               
04800009.hru 04800009.mgt is003287.sol is003287.chm 04800009.gw               
04800010.hru 04800010.mgt is003288.sol is003288.chm 04800010.gw               
04800011.hru 04800011.mgt is003289.sol is003289.chm 04800011.gw               
04800012.hru 04800012.mgt is003290.sol is003290.chm 04800012.gw               
04800013.hru 04800013.mgt is003291.sol is003291.chm 04800013.gw               
04800014.hru 04800014.mgt is003292.sol is003292.chm 04800014.gw               
04800015.hru 04800015.mgt is003293.sol is003293.chm 04800015.gw               
04800016.hru 04800016.mgt is003294.sol is003294.chm 04800016.gw               
04800017.hru 04800017.mgt is003295.sol is003295.chm 04800017.gw               
04800018.hru 04800018.mgt is003296.sol is003296.chm 04800018.gw               
04800019.hru 04800019.mgt is003297.sol is003297.chm 04800019.gw               
