.sub file Subbasin:47 Fri Feb 23 14:09:24 2007 AVSWATX2003 - SWAT interface MDL
    77.17899
Written by i_SWAT 2016-03-10 12:24:43
!!Climate
  42.085
 328.510
       7
       7
       7
       7
       7
is00047.wgn
0


   0.000   0.000   0.000   0.000   0.000   0.000   0.000   0.000   0.000   0.000

   0.000   0.000   0.000   0.000   0.000   0.000   0.000   0.000   0.000   0.000

   0.000   0.000   0.000   0.000   0.000   0.000   0.000   0.000   0.000   0.000
   0.000
   0.000
   0.000

  24.902
   0.001
  17.502
   0.500
   0.014

000000047.PND

000000047.WUS

   0.000

   0.000   0.000   0.000   0.000   0.000   0.000

   0.000   0.000   0.000   0.000   0.000   0.000

   0.000   0.000   0.000   0.000   0.000   0.000

   0.000   0.000   0.000   0.000   0.000   0.000

   0.000   0.000   0.000   0.000   0.000   0.000

   0.000   0.000   0.000   0.000   0.000   0.000

   0.000   0.000   0.000   0.000   0.000   0.000

   0.000   0.000   0.000   0.000   0.000   0.000

      27








04700001.hru 04700001.mgt is003298.sol is003298.chm 04700001.gw               
04700002.hru 04700002.mgt is003299.sol is003299.chm 04700002.gw               
04700003.hru 04700003.mgt is003300.sol is003300.chm 04700003.gw               
04700004.hru 04700004.mgt is003301.sol is003301.chm 04700004.gw               
04700005.hru 04700005.mgt is003302.sol is003302.chm 04700005.gw               
04700006.hru 04700006.mgt is003303.sol is003303.chm 04700006.gw               
04700007.hru 04700007.mgt is003304.sol is003304.chm 04700007.gw               
04700008.hru 04700008.mgt is003305.sol is003305.chm 04700008.gw               
04700009.hru 04700009.mgt is003306.sol is003306.chm 04700009.gw               
04700010.hru 04700010.mgt is003307.sol is003307.chm 04700010.gw               
04700011.hru 04700011.mgt is003308.sol is003308.chm 04700011.gw               
04700012.hru 04700012.mgt is003309.sol is003309.chm 04700012.gw               
04700013.hru 04700013.mgt is003310.sol is003310.chm 04700013.gw               
04700014.hru 04700014.mgt is003311.sol is003311.chm 04700014.gw               
04700015.hru 04700015.mgt is003312.sol is003312.chm 04700015.gw               
04700016.hru 04700016.mgt is003313.sol is003313.chm 04700016.gw               
04700017.hru 04700017.mgt is003314.sol is003314.chm 04700017.gw               
04700018.hru 04700018.mgt is003315.sol is003315.chm 04700018.gw               
04700019.hru 04700019.mgt is003316.sol is003316.chm 04700019.gw               
04700020.hru 04700020.mgt is003317.sol is003317.chm 04700020.gw               
04700021.hru 04700021.mgt is003318.sol is003318.chm 04700021.gw               
04700022.hru 04700022.mgt is003319.sol is003319.chm 04700022.gw               
04700023.hru 04700023.mgt is003320.sol is003320.chm 04700023.gw               
04700024.hru 04700024.mgt is003321.sol is003321.chm 04700024.gw               
04700025.hru 04700025.mgt is003322.sol is003322.chm 04700025.gw               
04700026.hru 04700026.mgt is003323.sol is003323.chm 04700026.gw               
04700027.hru 04700027.mgt is003324.sol is003324.chm 04700027.gw               
