.sub file Subbasin:101 Fri Feb 23 14:09:30 2007 AVSWATX2003 - SWAT interface MDL
   138.21695
Written by i_SWAT 2016-03-10 12:26:29
!!Climate
  41.752
 334.590
       8
       8
       8
       8
       8
is00101.wgn
0


   0.000   0.000   0.000   0.000   0.000   0.000   0.000   0.000   0.000   0.000

   0.000   0.000   0.000   0.000   0.000   0.000   0.000   0.000   0.000   0.000

   0.000   0.000   0.000   0.000   0.000   0.000   0.000   0.000   0.000   0.000
   0.000
   0.000
   0.000

  39.332
   0.001
  24.827
   0.500
   0.014

000000101.PND

000000101.WUS

   0.000

   0.000   0.000   0.000   0.000   0.000   0.000

   0.000   0.000   0.000   0.000   0.000   0.000

   0.000   0.000   0.000   0.000   0.000   0.000

   0.000   0.000   0.000   0.000   0.000   0.000

   0.000   0.000   0.000   0.000   0.000   0.000

   0.000   0.000   0.000   0.000   0.000   0.000

   0.000   0.000   0.000   0.000   0.000   0.000

   0.000   0.000   0.000   0.000   0.000   0.000

      40








10100001.hru 10100001.mgt is001118.sol is001118.chm 10100001.gw               
10100002.hru 10100002.mgt is001119.sol is001119.chm 10100002.gw               
10100003.hru 10100003.mgt is001120.sol is001120.chm 10100003.gw               
10100004.hru 10100004.mgt is001121.sol is001121.chm 10100004.gw               
10100005.hru 10100005.mgt is001122.sol is001122.chm 10100005.gw               
10100006.hru 10100006.mgt is001123.sol is001123.chm 10100006.gw               
10100007.hru 10100007.mgt is001124.sol is001124.chm 10100007.gw               
10100008.hru 10100008.mgt is001125.sol is001125.chm 10100008.gw               
10100009.hru 10100009.mgt is001126.sol is001126.chm 10100009.gw               
10100010.hru 10100010.mgt is001127.sol is001127.chm 10100010.gw               
10100011.hru 10100011.mgt is001128.sol is001128.chm 10100011.gw               
10100012.hru 10100012.mgt is001129.sol is001129.chm 10100012.gw               
10100013.hru 10100013.mgt is001130.sol is001130.chm 10100013.gw               
10100014.hru 10100014.mgt is001131.sol is001131.chm 10100014.gw               
10100015.hru 10100015.mgt is001132.sol is001132.chm 10100015.gw               
10100016.hru 10100016.mgt is001133.sol is001133.chm 10100016.gw               
10100017.hru 10100017.mgt is001134.sol is001134.chm 10100017.gw               
10100018.hru 10100018.mgt is001135.sol is001135.chm 10100018.gw               
10100019.hru 10100019.mgt is001136.sol is001136.chm 10100019.gw               
10100020.hru 10100020.mgt is001137.sol is001137.chm 10100020.gw               
10100021.hru 10100021.mgt is001138.sol is001138.chm 10100021.gw               
10100022.hru 10100022.mgt is001139.sol is001139.chm 10100022.gw               
10100023.hru 10100023.mgt is001140.sol is001140.chm 10100023.gw               
10100024.hru 10100024.mgt is001141.sol is001141.chm 10100024.gw               
10100025.hru 10100025.mgt is001142.sol is001142.chm 10100025.gw               
10100026.hru 10100026.mgt is001143.sol is001143.chm 10100026.gw               
10100027.hru 10100027.mgt is001144.sol is001144.chm 10100027.gw               
10100028.hru 10100028.mgt is001145.sol is001145.chm 10100028.gw               
10100029.hru 10100029.mgt is001146.sol is001146.chm 10100029.gw               
10100030.hru 10100030.mgt is001147.sol is001147.chm 10100030.gw               
10100031.hru 10100031.mgt is001148.sol is001148.chm 10100031.gw               
10100032.hru 10100032.mgt is001149.sol is001149.chm 10100032.gw               
10100033.hru 10100033.mgt is001150.sol is001150.chm 10100033.gw               
10100034.hru 10100034.mgt is001151.sol is001151.chm 10100034.gw               
10100035.hru 10100035.mgt is001152.sol is001152.chm 10100035.gw               
10100036.hru 10100036.mgt is001153.sol is001153.chm 10100036.gw               
10100037.hru 10100037.mgt is001154.sol is001154.chm 10100037.gw               
10100038.hru 10100038.mgt is001155.sol is001155.chm 10100038.gw               
10100039.hru 10100039.mgt is001156.sol is001156.chm 10100039.gw               
10100040.hru 10100040.mgt is001157.sol is001157.chm 10100040.gw               
