.sub file Subbasin:53 Fri Feb 23 14:09:24 2007 AVSWATX2003 - SWAT interface MDL
    14.87200
Written by i_SWAT 2016-03-10 12:25:12
!!Climate
  41.980
 298.900
       7
       7
       7
       7
       7
is00053.wgn
0


   0.000   0.000   0.000   0.000   0.000   0.000   0.000   0.000   0.000   0.000

   0.000   0.000   0.000   0.000   0.000   0.000   0.000   0.000   0.000   0.000

   0.000   0.000   0.000   0.000   0.000   0.000   0.000   0.000   0.000   0.000
   0.000
   0.000
   0.000

   9.751
   0.003
   6.516
   0.500
   0.014

000000053.PND

000000053.WUS

   0.000

   0.000   0.000   0.000   0.000   0.000   0.000

   0.000   0.000   0.000   0.000   0.000   0.000

   0.000   0.000   0.000   0.000   0.000   0.000

   0.000   0.000   0.000   0.000   0.000   0.000

   0.000   0.000   0.000   0.000   0.000   0.000

   0.000   0.000   0.000   0.000   0.000   0.000

   0.000   0.000   0.000   0.000   0.000   0.000

   0.000   0.000   0.000   0.000   0.000   0.000

      38








05300001.hru 05300001.mgt is001869.sol is001869.chm 05300001.gw               
05300002.hru 05300002.mgt is001870.sol is001870.chm 05300002.gw               
05300003.hru 05300003.mgt is001871.sol is001871.chm 05300003.gw               
05300004.hru 05300004.mgt is001872.sol is001872.chm 05300004.gw               
05300005.hru 05300005.mgt is001873.sol is001873.chm 05300005.gw               
05300006.hru 05300006.mgt is001874.sol is001874.chm 05300006.gw               
05300007.hru 05300007.mgt is001875.sol is001875.chm 05300007.gw               
05300008.hru 05300008.mgt is001876.sol is001876.chm 05300008.gw               
05300009.hru 05300009.mgt is001877.sol is001877.chm 05300009.gw               
05300010.hru 05300010.mgt is001878.sol is001878.chm 05300010.gw               
05300011.hru 05300011.mgt is001879.sol is001879.chm 05300011.gw               
05300012.hru 05300012.mgt is001880.sol is001880.chm 05300012.gw               
05300013.hru 05300013.mgt is001881.sol is001881.chm 05300013.gw               
05300014.hru 05300014.mgt is001882.sol is001882.chm 05300014.gw               
05300015.hru 05300015.mgt is001883.sol is001883.chm 05300015.gw               
05300016.hru 05300016.mgt is001884.sol is001884.chm 05300016.gw               
05300017.hru 05300017.mgt is001885.sol is001885.chm 05300017.gw               
05300018.hru 05300018.mgt is001886.sol is001886.chm 05300018.gw               
05300019.hru 05300019.mgt is001887.sol is001887.chm 05300019.gw               
05300020.hru 05300020.mgt is001888.sol is001888.chm 05300020.gw               
05300021.hru 05300021.mgt is001889.sol is001889.chm 05300021.gw               
05300022.hru 05300022.mgt is001890.sol is001890.chm 05300022.gw               
05300023.hru 05300023.mgt is001891.sol is001891.chm 05300023.gw               
05300024.hru 05300024.mgt is001892.sol is001892.chm 05300024.gw               
05300025.hru 05300025.mgt is001893.sol is001893.chm 05300025.gw               
05300026.hru 05300026.mgt is001894.sol is001894.chm 05300026.gw               
05300027.hru 05300027.mgt is001895.sol is001895.chm 05300027.gw               
05300028.hru 05300028.mgt is001896.sol is001896.chm 05300028.gw               
05300029.hru 05300029.mgt is001897.sol is001897.chm 05300029.gw               
05300030.hru 05300030.mgt is001898.sol is001898.chm 05300030.gw               
05300031.hru 05300031.mgt is001899.sol is001899.chm 05300031.gw               
05300032.hru 05300032.mgt is001900.sol is001900.chm 05300032.gw               
05300033.hru 05300033.mgt is001901.sol is001901.chm 05300033.gw               
05300034.hru 05300034.mgt is001902.sol is001902.chm 05300034.gw               
05300035.hru 05300035.mgt is001903.sol is001903.chm 05300035.gw               
05300036.hru 05300036.mgt is001904.sol is001904.chm 05300036.gw               
05300037.hru 05300037.mgt is001905.sol is001905.chm 05300037.gw               
05300038.hru 05300038.mgt is001906.sol is001906.chm 05300038.gw               
