.sub file Subbasin:29 Fri Feb 23 14:09:22 2007 AVSWATX2003 - SWAT interface MDL
    48.56901
Written by i_SWAT 2016-03-10 12:24:34
!!Climate
  42.276
 383.220
       3
       3
       3
       3
       3
is00029.wgn
0


   0.000   0.000   0.000   0.000   0.000   0.000   0.000   0.000   0.000   0.000

   0.000   0.000   0.000   0.000   0.000   0.000   0.000   0.000   0.000   0.000

   0.000   0.000   0.000   0.000   0.000   0.000   0.000   0.000   0.000   0.000
   0.000
   0.000
   0.000

  19.463
   0.003
  13.256
   0.500
   0.014

000000029.PND

000000029.WUS

   0.000

   0.000   0.000   0.000   0.000   0.000   0.000

   0.000   0.000   0.000   0.000   0.000   0.000

   0.000   0.000   0.000   0.000   0.000   0.000

   0.000   0.000   0.000   0.000   0.000   0.000

   0.000   0.000   0.000   0.000   0.000   0.000

   0.000   0.000   0.000   0.000   0.000   0.000

   0.000   0.000   0.000   0.000   0.000   0.000

   0.000   0.000   0.000   0.000   0.000   0.000

      25








02900001.hru 02900001.mgt is003167.sol is003167.chm 02900001.gw               
02900002.hru 02900002.mgt is003168.sol is003168.chm 02900002.gw               
02900003.hru 02900003.mgt is003169.sol is003169.chm 02900003.gw               
02900004.hru 02900004.mgt is003170.sol is003170.chm 02900004.gw               
02900005.hru 02900005.mgt is003171.sol is003171.chm 02900005.gw               
02900006.hru 02900006.mgt is003172.sol is003172.chm 02900006.gw               
02900007.hru 02900007.mgt is003173.sol is003173.chm 02900007.gw               
02900008.hru 02900008.mgt is003174.sol is003174.chm 02900008.gw               
02900009.hru 02900009.mgt is003175.sol is003175.chm 02900009.gw               
02900010.hru 02900010.mgt is003176.sol is003176.chm 02900010.gw               
02900011.hru 02900011.mgt is003177.sol is003177.chm 02900011.gw               
02900012.hru 02900012.mgt is003178.sol is003178.chm 02900012.gw               
02900013.hru 02900013.mgt is003179.sol is003179.chm 02900013.gw               
02900014.hru 02900014.mgt is003180.sol is003180.chm 02900014.gw               
02900015.hru 02900015.mgt is003181.sol is003181.chm 02900015.gw               
02900016.hru 02900016.mgt is003182.sol is003182.chm 02900016.gw               
02900017.hru 02900017.mgt is003183.sol is003183.chm 02900017.gw               
02900018.hru 02900018.mgt is003184.sol is003184.chm 02900018.gw               
02900019.hru 02900019.mgt is003185.sol is003185.chm 02900019.gw               
02900020.hru 02900020.mgt is003186.sol is003186.chm 02900020.gw               
02900021.hru 02900021.mgt is003187.sol is003187.chm 02900021.gw               
02900022.hru 02900022.mgt is003188.sol is003188.chm 02900022.gw               
02900023.hru 02900023.mgt is003189.sol is003189.chm 02900023.gw               
02900024.hru 02900024.mgt is003190.sol is003190.chm 02900024.gw               
02900025.hru 02900025.mgt is003191.sol is003191.chm 02900025.gw               
