.sub file Subbasin:100 Fri Feb 23 14:09:30 2007 AVSWATX2003 - SWAT interface MDL
    90.55703
Written by i_SWAT 2016-03-10 12:26:28
!!Climate
  42.014
 360.490
       6
       6
       6
       6
       6
is00100.wgn
0


   0.000   0.000   0.000   0.000   0.000   0.000   0.000   0.000   0.000   0.000

   0.000   0.000   0.000   0.000   0.000   0.000   0.000   0.000   0.000   0.000

   0.000   0.000   0.000   0.000   0.000   0.000   0.000   0.000   0.000   0.000
   0.000
   0.000
   0.000

  17.641
   0.002
  19.264
   0.500
   0.014

000000100.PND

000000100.WUS

   0.000

   0.000   0.000   0.000   0.000   0.000   0.000

   0.000   0.000   0.000   0.000   0.000   0.000

   0.000   0.000   0.000   0.000   0.000   0.000

   0.000   0.000   0.000   0.000   0.000   0.000

   0.000   0.000   0.000   0.000   0.000   0.000

   0.000   0.000   0.000   0.000   0.000   0.000

   0.000   0.000   0.000   0.000   0.000   0.000

   0.000   0.000   0.000   0.000   0.000   0.000

      42








10000001.hru 10000001.mgt is001450.sol is001450.chm 10000001.gw               
10000002.hru 10000002.mgt is001451.sol is001451.chm 10000002.gw               
10000003.hru 10000003.mgt is001452.sol is001452.chm 10000003.gw               
10000004.hru 10000004.mgt is001453.sol is001453.chm 10000004.gw               
10000005.hru 10000005.mgt is001454.sol is001454.chm 10000005.gw               
10000006.hru 10000006.mgt is001455.sol is001455.chm 10000006.gw               
10000007.hru 10000007.mgt is001456.sol is001456.chm 10000007.gw               
10000008.hru 10000008.mgt is001457.sol is001457.chm 10000008.gw               
10000009.hru 10000009.mgt is001458.sol is001458.chm 10000009.gw               
10000010.hru 10000010.mgt is001459.sol is001459.chm 10000010.gw               
10000011.hru 10000011.mgt is001460.sol is001460.chm 10000011.gw               
10000012.hru 10000012.mgt is001461.sol is001461.chm 10000012.gw               
10000013.hru 10000013.mgt is001462.sol is001462.chm 10000013.gw               
10000014.hru 10000014.mgt is001463.sol is001463.chm 10000014.gw               
10000015.hru 10000015.mgt is001464.sol is001464.chm 10000015.gw               
10000016.hru 10000016.mgt is001465.sol is001465.chm 10000016.gw               
10000017.hru 10000017.mgt is001466.sol is001466.chm 10000017.gw               
10000018.hru 10000018.mgt is001467.sol is001467.chm 10000018.gw               
10000019.hru 10000019.mgt is001468.sol is001468.chm 10000019.gw               
10000020.hru 10000020.mgt is001469.sol is001469.chm 10000020.gw               
10000021.hru 10000021.mgt is001470.sol is001470.chm 10000021.gw               
10000022.hru 10000022.mgt is001471.sol is001471.chm 10000022.gw               
10000023.hru 10000023.mgt is001472.sol is001472.chm 10000023.gw               
10000024.hru 10000024.mgt is001473.sol is001473.chm 10000024.gw               
10000025.hru 10000025.mgt is001474.sol is001474.chm 10000025.gw               
10000026.hru 10000026.mgt is001475.sol is001475.chm 10000026.gw               
10000027.hru 10000027.mgt is001476.sol is001476.chm 10000027.gw               
10000028.hru 10000028.mgt is001477.sol is001477.chm 10000028.gw               
10000029.hru 10000029.mgt is001478.sol is001478.chm 10000029.gw               
10000030.hru 10000030.mgt is001479.sol is001479.chm 10000030.gw               
10000031.hru 10000031.mgt is001480.sol is001480.chm 10000031.gw               
10000032.hru 10000032.mgt is001481.sol is001481.chm 10000032.gw               
10000033.hru 10000033.mgt is001482.sol is001482.chm 10000033.gw               
10000034.hru 10000034.mgt is001483.sol is001483.chm 10000034.gw               
10000035.hru 10000035.mgt is001484.sol is001484.chm 10000035.gw               
10000036.hru 10000036.mgt is001485.sol is001485.chm 10000036.gw               
10000037.hru 10000037.mgt is001486.sol is001486.chm 10000037.gw               
10000038.hru 10000038.mgt is001487.sol is001487.chm 10000038.gw               
10000039.hru 10000039.mgt is001488.sol is001488.chm 10000039.gw               
10000040.hru 10000040.mgt is001489.sol is001489.chm 10000040.gw               
10000041.hru 10000041.mgt is001490.sol is001490.chm 10000041.gw               
10000042.hru 10000042.mgt is001491.sol is001491.chm 10000042.gw               
