.sub file Subbasin:26 Fri Feb 23 14:09:21 2007 AVSWATX2003 - SWAT interface MDL
    67.62999
Written by i_SWAT 2016-03-10 12:24:32
!!Climate
  42.445
 353.810
       5
       5
       5
       5
       5
is00026.wgn
0


   0.000   0.000   0.000   0.000   0.000   0.000   0.000   0.000   0.000   0.000

   0.000   0.000   0.000   0.000   0.000   0.000   0.000   0.000   0.000   0.000

   0.000   0.000   0.000   0.000   0.000   0.000   0.000   0.000   0.000   0.000
   0.000
   0.000
   0.000

  24.468
   0.001
  16.169
   0.500
   0.014

000000026.PND

000000026.WUS

   0.000

   0.000   0.000   0.000   0.000   0.000   0.000

   0.000   0.000   0.000   0.000   0.000   0.000

   0.000   0.000   0.000   0.000   0.000   0.000

   0.000   0.000   0.000   0.000   0.000   0.000

   0.000   0.000   0.000   0.000   0.000   0.000

   0.000   0.000   0.000   0.000   0.000   0.000

   0.000   0.000   0.000   0.000   0.000   0.000

   0.000   0.000   0.000   0.000   0.000   0.000

      23








02600001.hru 02600001.mgt is002074.sol is002074.chm 02600001.gw               
02600002.hru 02600002.mgt is002075.sol is002075.chm 02600002.gw               
02600003.hru 02600003.mgt is002076.sol is002076.chm 02600003.gw               
02600004.hru 02600004.mgt is002077.sol is002077.chm 02600004.gw               
02600005.hru 02600005.mgt is002078.sol is002078.chm 02600005.gw               
02600006.hru 02600006.mgt is002079.sol is002079.chm 02600006.gw               
02600007.hru 02600007.mgt is002080.sol is002080.chm 02600007.gw               
02600008.hru 02600008.mgt is002081.sol is002081.chm 02600008.gw               
02600009.hru 02600009.mgt is002082.sol is002082.chm 02600009.gw               
02600010.hru 02600010.mgt is002083.sol is002083.chm 02600010.gw               
02600011.hru 02600011.mgt is002084.sol is002084.chm 02600011.gw               
02600012.hru 02600012.mgt is002085.sol is002085.chm 02600012.gw               
02600013.hru 02600013.mgt is002086.sol is002086.chm 02600013.gw               
02600014.hru 02600014.mgt is002087.sol is002087.chm 02600014.gw               
02600015.hru 02600015.mgt is002088.sol is002088.chm 02600015.gw               
02600016.hru 02600016.mgt is002089.sol is002089.chm 02600016.gw               
02600017.hru 02600017.mgt is002090.sol is002090.chm 02600017.gw               
02600018.hru 02600018.mgt is002091.sol is002091.chm 02600018.gw               
02600019.hru 02600019.mgt is002092.sol is002092.chm 02600019.gw               
02600020.hru 02600020.mgt is002093.sol is002093.chm 02600020.gw               
02600021.hru 02600021.mgt is002094.sol is002094.chm 02600021.gw               
02600022.hru 02600022.mgt is002095.sol is002095.chm 02600022.gw               
02600023.hru 02600023.mgt is002096.sol is002096.chm 02600023.gw               
