.sub file Subbasin:109 Fri Feb 23 14:09:31 2007 AVSWATX2003 - SWAT interface MDL
    80.76302
Written by i_SWAT 2016-03-10 12:26:33
!!Climate
  41.728
 313.950
       9
       9
       9
       9
       9
is00109.wgn
0


   0.000   0.000   0.000   0.000   0.000   0.000   0.000   0.000   0.000   0.000

   0.000   0.000   0.000   0.000   0.000   0.000   0.000   0.000   0.000   0.000

   0.000   0.000   0.000   0.000   0.000   0.000   0.000   0.000   0.000   0.000
   0.000
   0.000
   0.000

  25.406
   0.002
  17.985
   0.500
   0.014

000000109.PND

000000109.WUS

   0.000

   0.000   0.000   0.000   0.000   0.000   0.000

   0.000   0.000   0.000   0.000   0.000   0.000

   0.000   0.000   0.000   0.000   0.000   0.000

   0.000   0.000   0.000   0.000   0.000   0.000

   0.000   0.000   0.000   0.000   0.000   0.000

   0.000   0.000   0.000   0.000   0.000   0.000

   0.000   0.000   0.000   0.000   0.000   0.000

   0.000   0.000   0.000   0.000   0.000   0.000

      51








10900001.hru 10900001.mgt is001622.sol is001622.chm 10900001.gw               
10900002.hru 10900002.mgt is001623.sol is001623.chm 10900002.gw               
10900003.hru 10900003.mgt is001624.sol is001624.chm 10900003.gw               
10900004.hru 10900004.mgt is001625.sol is001625.chm 10900004.gw               
10900005.hru 10900005.mgt is001626.sol is001626.chm 10900005.gw               
10900006.hru 10900006.mgt is001627.sol is001627.chm 10900006.gw               
10900007.hru 10900007.mgt is001628.sol is001628.chm 10900007.gw               
10900008.hru 10900008.mgt is001629.sol is001629.chm 10900008.gw               
10900009.hru 10900009.mgt is001630.sol is001630.chm 10900009.gw               
10900010.hru 10900010.mgt is001631.sol is001631.chm 10900010.gw               
10900011.hru 10900011.mgt is001632.sol is001632.chm 10900011.gw               
10900012.hru 10900012.mgt is001633.sol is001633.chm 10900012.gw               
10900013.hru 10900013.mgt is001634.sol is001634.chm 10900013.gw               
10900014.hru 10900014.mgt is001635.sol is001635.chm 10900014.gw               
10900015.hru 10900015.mgt is001636.sol is001636.chm 10900015.gw               
10900016.hru 10900016.mgt is001637.sol is001637.chm 10900016.gw               
10900017.hru 10900017.mgt is001638.sol is001638.chm 10900017.gw               
10900018.hru 10900018.mgt is001639.sol is001639.chm 10900018.gw               
10900019.hru 10900019.mgt is001640.sol is001640.chm 10900019.gw               
10900020.hru 10900020.mgt is001641.sol is001641.chm 10900020.gw               
10900021.hru 10900021.mgt is001642.sol is001642.chm 10900021.gw               
10900022.hru 10900022.mgt is001643.sol is001643.chm 10900022.gw               
10900023.hru 10900023.mgt is001644.sol is001644.chm 10900023.gw               
10900024.hru 10900024.mgt is001645.sol is001645.chm 10900024.gw               
10900025.hru 10900025.mgt is001646.sol is001646.chm 10900025.gw               
10900026.hru 10900026.mgt is001647.sol is001647.chm 10900026.gw               
10900027.hru 10900027.mgt is001648.sol is001648.chm 10900027.gw               
10900028.hru 10900028.mgt is001649.sol is001649.chm 10900028.gw               
10900029.hru 10900029.mgt is001650.sol is001650.chm 10900029.gw               
10900030.hru 10900030.mgt is001651.sol is001651.chm 10900030.gw               
10900031.hru 10900031.mgt is001652.sol is001652.chm 10900031.gw               
10900032.hru 10900032.mgt is001653.sol is001653.chm 10900032.gw               
10900033.hru 10900033.mgt is001654.sol is001654.chm 10900033.gw               
10900034.hru 10900034.mgt is001655.sol is001655.chm 10900034.gw               
10900035.hru 10900035.mgt is001656.sol is001656.chm 10900035.gw               
10900036.hru 10900036.mgt is001657.sol is001657.chm 10900036.gw               
10900037.hru 10900037.mgt is001658.sol is001658.chm 10900037.gw               
10900038.hru 10900038.mgt is001659.sol is001659.chm 10900038.gw               
10900039.hru 10900039.mgt is001660.sol is001660.chm 10900039.gw               
10900040.hru 10900040.mgt is001661.sol is001661.chm 10900040.gw               
10900041.hru 10900041.mgt is001662.sol is001662.chm 10900041.gw               
10900042.hru 10900042.mgt is001663.sol is001663.chm 10900042.gw               
10900043.hru 10900043.mgt is001664.sol is001664.chm 10900043.gw               
10900044.hru 10900044.mgt is001665.sol is001665.chm 10900044.gw               
10900045.hru 10900045.mgt is001666.sol is001666.chm 10900045.gw               
10900046.hru 10900046.mgt is001667.sol is001667.chm 10900046.gw               
10900047.hru 10900047.mgt is001668.sol is001668.chm 10900047.gw               
10900048.hru 10900048.mgt is001669.sol is001669.chm 10900048.gw               
10900049.hru 10900049.mgt is001670.sol is001670.chm 10900049.gw               
10900050.hru 10900050.mgt is001671.sol is001671.chm 10900050.gw               
10900051.hru 10900051.mgt is001672.sol is001672.chm 10900051.gw               
