.sub file Subbasin:58 Fri Feb 23 14:09:25 2007 AVSWATX2003 - SWAT interface MDL
    78.43900
Written by i_SWAT 2016-03-10 12:25:38
!!Climate
  41.880
 315.930
       7
       7
       7
       7
       7
is00058.wgn
0


   0.000   0.000   0.000   0.000   0.000   0.000   0.000   0.000   0.000   0.000

   0.000   0.000   0.000   0.000   0.000   0.000   0.000   0.000   0.000   0.000

   0.000   0.000   0.000   0.000   0.000   0.000   0.000   0.000   0.000   0.000
   0.000
   0.000
   0.000

  22.228
   0.002
  17.673
   0.500
   0.014

000000058.PND

000000058.WUS

   0.000

   0.000   0.000   0.000   0.000   0.000   0.000

   0.000   0.000   0.000   0.000   0.000   0.000

   0.000   0.000   0.000   0.000   0.000   0.000

   0.000   0.000   0.000   0.000   0.000   0.000

   0.000   0.000   0.000   0.000   0.000   0.000

   0.000   0.000   0.000   0.000   0.000   0.000

   0.000   0.000   0.000   0.000   0.000   0.000

   0.000   0.000   0.000   0.000   0.000   0.000

      33








05800001.hru 05800001.mgt is001769.sol is001769.chm 05800001.gw               
05800002.hru 05800002.mgt is001770.sol is001770.chm 05800002.gw               
05800003.hru 05800003.mgt is001771.sol is001771.chm 05800003.gw               
05800004.hru 05800004.mgt is001772.sol is001772.chm 05800004.gw               
05800005.hru 05800005.mgt is001773.sol is001773.chm 05800005.gw               
05800006.hru 05800006.mgt is001774.sol is001774.chm 05800006.gw               
05800007.hru 05800007.mgt is001775.sol is001775.chm 05800007.gw               
05800008.hru 05800008.mgt is001776.sol is001776.chm 05800008.gw               
05800009.hru 05800009.mgt is001777.sol is001777.chm 05800009.gw               
05800010.hru 05800010.mgt is001778.sol is001778.chm 05800010.gw               
05800011.hru 05800011.mgt is001779.sol is001779.chm 05800011.gw               
05800012.hru 05800012.mgt is001780.sol is001780.chm 05800012.gw               
05800013.hru 05800013.mgt is001781.sol is001781.chm 05800013.gw               
05800014.hru 05800014.mgt is001782.sol is001782.chm 05800014.gw               
05800015.hru 05800015.mgt is001783.sol is001783.chm 05800015.gw               
05800016.hru 05800016.mgt is001784.sol is001784.chm 05800016.gw               
05800017.hru 05800017.mgt is001785.sol is001785.chm 05800017.gw               
05800018.hru 05800018.mgt is001786.sol is001786.chm 05800018.gw               
05800019.hru 05800019.mgt is001787.sol is001787.chm 05800019.gw               
05800020.hru 05800020.mgt is001788.sol is001788.chm 05800020.gw               
05800021.hru 05800021.mgt is001789.sol is001789.chm 05800021.gw               
05800022.hru 05800022.mgt is001790.sol is001790.chm 05800022.gw               
05800023.hru 05800023.mgt is001791.sol is001791.chm 05800023.gw               
05800024.hru 05800024.mgt is001792.sol is001792.chm 05800024.gw               
05800025.hru 05800025.mgt is001793.sol is001793.chm 05800025.gw               
05800026.hru 05800026.mgt is001794.sol is001794.chm 05800026.gw               
05800027.hru 05800027.mgt is001795.sol is001795.chm 05800027.gw               
05800028.hru 05800028.mgt is001796.sol is001796.chm 05800028.gw               
05800029.hru 05800029.mgt is001797.sol is001797.chm 05800029.gw               
05800030.hru 05800030.mgt is001798.sol is001798.chm 05800030.gw               
05800031.hru 05800031.mgt is001799.sol is001799.chm 05800031.gw               
05800032.hru 05800032.mgt is001800.sol is001800.chm 05800032.gw               
05800033.hru 05800033.mgt is001801.sol is001801.chm 05800033.gw               
