.sub file Subbasin:9 Fri Feb 23 14:09:20 2007 AVSWATX2003 - SWAT interface MDL
    81.99998
Written by i_SWAT 2016-03-10 12:24:27
!!Climate
  42.797
 396.720
       2
       2
       2
       2
       2
is00009.wgn
0


   0.000   0.000   0.000   0.000   0.000   0.000   0.000   0.000   0.000   0.000

   0.000   0.000   0.000   0.000   0.000   0.000   0.000   0.000   0.000   0.000

   0.000   0.000   0.000   0.000   0.000   0.000   0.000   0.000   0.000   0.000
   0.000
   0.000
   0.000

  29.634
   0.001
  18.150
   0.500
   0.014

000000009.PND

000000009.WUS

   0.000

   0.000   0.000   0.000   0.000   0.000   0.000

   0.000   0.000   0.000   0.000   0.000   0.000

   0.000   0.000   0.000   0.000   0.000   0.000

   0.000   0.000   0.000   0.000   0.000   0.000

   0.000   0.000   0.000   0.000   0.000   0.000

   0.000   0.000   0.000   0.000   0.000   0.000

   0.000   0.000   0.000   0.000   0.000   0.000

   0.000   0.000   0.000   0.000   0.000   0.000

      22








00900001.hru 00900001.mgt is002823.sol is002823.chm 00900001.gw               
00900002.hru 00900002.mgt is002824.sol is002824.chm 00900002.gw               
00900003.hru 00900003.mgt is002825.sol is002825.chm 00900003.gw               
00900004.hru 00900004.mgt is002826.sol is002826.chm 00900004.gw               
00900005.hru 00900005.mgt is002827.sol is002827.chm 00900005.gw               
00900006.hru 00900006.mgt is002828.sol is002828.chm 00900006.gw               
00900007.hru 00900007.mgt is002829.sol is002829.chm 00900007.gw               
00900008.hru 00900008.mgt is002830.sol is002830.chm 00900008.gw               
00900009.hru 00900009.mgt is002831.sol is002831.chm 00900009.gw               
00900010.hru 00900010.mgt is002832.sol is002832.chm 00900010.gw               
00900011.hru 00900011.mgt is002833.sol is002833.chm 00900011.gw               
00900012.hru 00900012.mgt is002834.sol is002834.chm 00900012.gw               
00900013.hru 00900013.mgt is002835.sol is002835.chm 00900013.gw               
00900014.hru 00900014.mgt is002836.sol is002836.chm 00900014.gw               
00900015.hru 00900015.mgt is002837.sol is002837.chm 00900015.gw               
00900016.hru 00900016.mgt is002838.sol is002838.chm 00900016.gw               
00900017.hru 00900017.mgt is002839.sol is002839.chm 00900017.gw               
00900018.hru 00900018.mgt is002840.sol is002840.chm 00900018.gw               
00900019.hru 00900019.mgt is002841.sol is002841.chm 00900019.gw               
00900020.hru 00900020.mgt is002842.sol is002842.chm 00900020.gw               
00900021.hru 00900021.mgt is002843.sol is002843.chm 00900021.gw               
00900022.hru 00900022.mgt is002844.sol is002844.chm 00900022.gw               
