.sub file Subbasin:91 Fri Feb 23 14:09:29 2007 AVSWATX2003 - SWAT interface MDL
    69.27801
Written by i_SWAT 2016-03-10 12:26:25
!!Climate
  42.351
 366.750
       4
       4
       4
       4
       4
is00091.wgn
0


   0.000   0.000   0.000   0.000   0.000   0.000   0.000   0.000   0.000   0.000

   0.000   0.000   0.000   0.000   0.000   0.000   0.000   0.000   0.000   0.000

   0.000   0.000   0.000   0.000   0.000   0.000   0.000   0.000   0.000   0.000
   0.000
   0.000
   0.000

  20.732
   0.001
  16.404
   0.500
   0.014

000000091.PND

000000091.WUS

   0.000

   0.000   0.000   0.000   0.000   0.000   0.000

   0.000   0.000   0.000   0.000   0.000   0.000

   0.000   0.000   0.000   0.000   0.000   0.000

   0.000   0.000   0.000   0.000   0.000   0.000

   0.000   0.000   0.000   0.000   0.000   0.000

   0.000   0.000   0.000   0.000   0.000   0.000

   0.000   0.000   0.000   0.000   0.000   0.000

   0.000   0.000   0.000   0.000   0.000   0.000

      21








09100001.hru 09100001.mgt is002487.sol is002487.chm 09100001.gw               
09100002.hru 09100002.mgt is002488.sol is002488.chm 09100002.gw               
09100003.hru 09100003.mgt is002489.sol is002489.chm 09100003.gw               
09100004.hru 09100004.mgt is002490.sol is002490.chm 09100004.gw               
09100005.hru 09100005.mgt is002491.sol is002491.chm 09100005.gw               
09100006.hru 09100006.mgt is002492.sol is002492.chm 09100006.gw               
09100007.hru 09100007.mgt is002493.sol is002493.chm 09100007.gw               
09100008.hru 09100008.mgt is002494.sol is002494.chm 09100008.gw               
09100009.hru 09100009.mgt is002495.sol is002495.chm 09100009.gw               
09100010.hru 09100010.mgt is002496.sol is002496.chm 09100010.gw               
09100011.hru 09100011.mgt is002497.sol is002497.chm 09100011.gw               
09100012.hru 09100012.mgt is002498.sol is002498.chm 09100012.gw               
09100013.hru 09100013.mgt is002499.sol is002499.chm 09100013.gw               
09100014.hru 09100014.mgt is002500.sol is002500.chm 09100014.gw               
09100015.hru 09100015.mgt is002501.sol is002501.chm 09100015.gw               
09100016.hru 09100016.mgt is002502.sol is002502.chm 09100016.gw               
09100017.hru 09100017.mgt is002503.sol is002503.chm 09100017.gw               
09100018.hru 09100018.mgt is002504.sol is002504.chm 09100018.gw               
09100019.hru 09100019.mgt is002505.sol is002505.chm 09100019.gw               
09100020.hru 09100020.mgt is002506.sol is002506.chm 09100020.gw               
09100021.hru 09100021.mgt is002507.sol is002507.chm 09100021.gw               
