.sub file Subbasin:73 Fri Feb 23 14:09:27 2007 AVSWATX2003 - SWAT interface MDL
   119.40001
Written by i_SWAT 2016-03-10 12:26:17
!!Climate
  41.570
 378.780
       8
       8
       8
       8
       8
is00073.wgn
0


   0.000   0.000   0.000   0.000   0.000   0.000   0.000   0.000   0.000   0.000

   0.000   0.000   0.000   0.000   0.000   0.000   0.000   0.000   0.000   0.000

   0.000   0.000   0.000   0.000   0.000   0.000   0.000   0.000   0.000   0.000
   0.000
   0.000
   0.000

  27.777
   0.004
  22.740
   0.500
   0.014

000000073.PND

000000073.WUS

   0.000

   0.000   0.000   0.000   0.000   0.000   0.000

   0.000   0.000   0.000   0.000   0.000   0.000

   0.000   0.000   0.000   0.000   0.000   0.000

   0.000   0.000   0.000   0.000   0.000   0.000

   0.000   0.000   0.000   0.000   0.000   0.000

   0.000   0.000   0.000   0.000   0.000   0.000

   0.000   0.000   0.000   0.000   0.000   0.000

   0.000   0.000   0.000   0.000   0.000   0.000

      36








07300001.hru 07300001.mgt is000700.sol is000700.chm 07300001.gw               
07300002.hru 07300002.mgt is000701.sol is000701.chm 07300002.gw               
07300003.hru 07300003.mgt is000702.sol is000702.chm 07300003.gw               
07300004.hru 07300004.mgt is000703.sol is000703.chm 07300004.gw               
07300005.hru 07300005.mgt is000704.sol is000704.chm 07300005.gw               
07300006.hru 07300006.mgt is000705.sol is000705.chm 07300006.gw               
07300007.hru 07300007.mgt is000706.sol is000706.chm 07300007.gw               
07300008.hru 07300008.mgt is000707.sol is000707.chm 07300008.gw               
07300009.hru 07300009.mgt is000708.sol is000708.chm 07300009.gw               
07300010.hru 07300010.mgt is000709.sol is000709.chm 07300010.gw               
07300011.hru 07300011.mgt is000710.sol is000710.chm 07300011.gw               
07300012.hru 07300012.mgt is000711.sol is000711.chm 07300012.gw               
07300013.hru 07300013.mgt is000712.sol is000712.chm 07300013.gw               
07300014.hru 07300014.mgt is000713.sol is000713.chm 07300014.gw               
07300015.hru 07300015.mgt is000714.sol is000714.chm 07300015.gw               
07300016.hru 07300016.mgt is000715.sol is000715.chm 07300016.gw               
07300017.hru 07300017.mgt is000716.sol is000716.chm 07300017.gw               
07300018.hru 07300018.mgt is000717.sol is000717.chm 07300018.gw               
07300019.hru 07300019.mgt is000718.sol is000718.chm 07300019.gw               
07300020.hru 07300020.mgt is000719.sol is000719.chm 07300020.gw               
07300021.hru 07300021.mgt is000720.sol is000720.chm 07300021.gw               
07300022.hru 07300022.mgt is000721.sol is000721.chm 07300022.gw               
07300023.hru 07300023.mgt is000722.sol is000722.chm 07300023.gw               
07300024.hru 07300024.mgt is000723.sol is000723.chm 07300024.gw               
07300025.hru 07300025.mgt is000724.sol is000724.chm 07300025.gw               
07300026.hru 07300026.mgt is000725.sol is000725.chm 07300026.gw               
07300027.hru 07300027.mgt is000726.sol is000726.chm 07300027.gw               
07300028.hru 07300028.mgt is000727.sol is000727.chm 07300028.gw               
07300029.hru 07300029.mgt is000728.sol is000728.chm 07300029.gw               
07300030.hru 07300030.mgt is000729.sol is000729.chm 07300030.gw               
07300031.hru 07300031.mgt is000730.sol is000730.chm 07300031.gw               
07300032.hru 07300032.mgt is000731.sol is000731.chm 07300032.gw               
07300033.hru 07300033.mgt is000732.sol is000732.chm 07300033.gw               
07300034.hru 07300034.mgt is000733.sol is000733.chm 07300034.gw               
07300035.hru 07300035.mgt is000734.sol is000734.chm 07300035.gw               
07300036.hru 07300036.mgt is000735.sol is000735.chm 07300036.gw               
