.sub file Subbasin:52 Fri Feb 23 14:09:24 2007 AVSWATX2003 - SWAT interface MDL
    54.01900
Written by i_SWAT 2016-03-10 12:25:07
!!Climate
  42.076
 343.990
       7
       7
       7
       7
       7
is00052.wgn
0


   0.000   0.000   0.000   0.000   0.000   0.000   0.000   0.000   0.000   0.000

   0.000   0.000   0.000   0.000   0.000   0.000   0.000   0.000   0.000   0.000

   0.000   0.000   0.000   0.000   0.000   0.000   0.000   0.000   0.000   0.000
   0.000
   0.000
   0.000

  19.557
   0.002
  14.129
   0.500
   0.014

000000052.PND

000000052.WUS

   0.000

   0.000   0.000   0.000   0.000   0.000   0.000

   0.000   0.000   0.000   0.000   0.000   0.000

   0.000   0.000   0.000   0.000   0.000   0.000

   0.000   0.000   0.000   0.000   0.000   0.000

   0.000   0.000   0.000   0.000   0.000   0.000

   0.000   0.000   0.000   0.000   0.000   0.000

   0.000   0.000   0.000   0.000   0.000   0.000

   0.000   0.000   0.000   0.000   0.000   0.000

      38








05200001.hru 05200001.mgt is001979.sol is001979.chm 05200001.gw               
05200002.hru 05200002.mgt is001980.sol is001980.chm 05200002.gw               
05200003.hru 05200003.mgt is001981.sol is001981.chm 05200003.gw               
05200004.hru 05200004.mgt is001982.sol is001982.chm 05200004.gw               
05200005.hru 05200005.mgt is001983.sol is001983.chm 05200005.gw               
05200006.hru 05200006.mgt is001984.sol is001984.chm 05200006.gw               
05200007.hru 05200007.mgt is001985.sol is001985.chm 05200007.gw               
05200008.hru 05200008.mgt is001986.sol is001986.chm 05200008.gw               
05200009.hru 05200009.mgt is001987.sol is001987.chm 05200009.gw               
05200010.hru 05200010.mgt is001988.sol is001988.chm 05200010.gw               
05200011.hru 05200011.mgt is001989.sol is001989.chm 05200011.gw               
05200012.hru 05200012.mgt is001990.sol is001990.chm 05200012.gw               
05200013.hru 05200013.mgt is001991.sol is001991.chm 05200013.gw               
05200014.hru 05200014.mgt is001992.sol is001992.chm 05200014.gw               
05200015.hru 05200015.mgt is001993.sol is001993.chm 05200015.gw               
05200016.hru 05200016.mgt is001994.sol is001994.chm 05200016.gw               
05200017.hru 05200017.mgt is001995.sol is001995.chm 05200017.gw               
05200018.hru 05200018.mgt is001996.sol is001996.chm 05200018.gw               
05200019.hru 05200019.mgt is001997.sol is001997.chm 05200019.gw               
05200020.hru 05200020.mgt is001998.sol is001998.chm 05200020.gw               
05200021.hru 05200021.mgt is001999.sol is001999.chm 05200021.gw               
05200022.hru 05200022.mgt is002000.sol is002000.chm 05200022.gw               
05200023.hru 05200023.mgt is002001.sol is002001.chm 05200023.gw               
05200024.hru 05200024.mgt is002002.sol is002002.chm 05200024.gw               
05200025.hru 05200025.mgt is002003.sol is002003.chm 05200025.gw               
05200026.hru 05200026.mgt is002004.sol is002004.chm 05200026.gw               
05200027.hru 05200027.mgt is002005.sol is002005.chm 05200027.gw               
05200028.hru 05200028.mgt is002006.sol is002006.chm 05200028.gw               
05200029.hru 05200029.mgt is002007.sol is002007.chm 05200029.gw               
05200030.hru 05200030.mgt is002008.sol is002008.chm 05200030.gw               
05200031.hru 05200031.mgt is002009.sol is002009.chm 05200031.gw               
05200032.hru 05200032.mgt is002010.sol is002010.chm 05200032.gw               
05200033.hru 05200033.mgt is002011.sol is002011.chm 05200033.gw               
05200034.hru 05200034.mgt is002012.sol is002012.chm 05200034.gw               
05200035.hru 05200035.mgt is002013.sol is002013.chm 05200035.gw               
05200036.hru 05200036.mgt is002014.sol is002014.chm 05200036.gw               
05200037.hru 05200037.mgt is002015.sol is002015.chm 05200037.gw               
05200038.hru 05200038.mgt is002016.sol is002016.chm 05200038.gw               
