.sub file Subbasin:75 Fri Feb 23 14:09:27 2007 AVSWATX2003 - SWAT interface MDL
   102.47800
Written by i_SWAT 2016-03-10 12:26:18
!!Climate
  41.636
 300.670
       8
       8
       8
       8
       8
is00075.wgn
0


   0.000   0.000   0.000   0.000   0.000   0.000   0.000   0.000   0.000   0.000

   0.000   0.000   0.000   0.000   0.000   0.000   0.000   0.000   0.000   0.000

   0.000   0.000   0.000   0.000   0.000   0.000   0.000   0.000   0.000   0.000
   0.000
   0.000
   0.000

  38.301
   0.003
  20.748
   0.500
   0.014

000000075.PND

000000075.WUS

   0.000

   0.000   0.000   0.000   0.000   0.000   0.000

   0.000   0.000   0.000   0.000   0.000   0.000

   0.000   0.000   0.000   0.000   0.000   0.000

   0.000   0.000   0.000   0.000   0.000   0.000

   0.000   0.000   0.000   0.000   0.000   0.000

   0.000   0.000   0.000   0.000   0.000   0.000

   0.000   0.000   0.000   0.000   0.000   0.000

   0.000   0.000   0.000   0.000   0.000   0.000

      24








07500001.hru 07500001.mgt is001058.sol is001058.chm 07500001.gw               
07500002.hru 07500002.mgt is001059.sol is001059.chm 07500002.gw               
07500003.hru 07500003.mgt is001060.sol is001060.chm 07500003.gw               
07500004.hru 07500004.mgt is001061.sol is001061.chm 07500004.gw               
07500005.hru 07500005.mgt is001062.sol is001062.chm 07500005.gw               
07500006.hru 07500006.mgt is001063.sol is001063.chm 07500006.gw               
07500007.hru 07500007.mgt is001064.sol is001064.chm 07500007.gw               
07500008.hru 07500008.mgt is001065.sol is001065.chm 07500008.gw               
07500009.hru 07500009.mgt is001066.sol is001066.chm 07500009.gw               
07500010.hru 07500010.mgt is001067.sol is001067.chm 07500010.gw               
07500011.hru 07500011.mgt is001068.sol is001068.chm 07500011.gw               
07500012.hru 07500012.mgt is001069.sol is001069.chm 07500012.gw               
07500013.hru 07500013.mgt is001070.sol is001070.chm 07500013.gw               
07500014.hru 07500014.mgt is001071.sol is001071.chm 07500014.gw               
07500015.hru 07500015.mgt is001072.sol is001072.chm 07500015.gw               
07500016.hru 07500016.mgt is001073.sol is001073.chm 07500016.gw               
07500017.hru 07500017.mgt is001074.sol is001074.chm 07500017.gw               
07500018.hru 07500018.mgt is001075.sol is001075.chm 07500018.gw               
07500019.hru 07500019.mgt is001076.sol is001076.chm 07500019.gw               
07500020.hru 07500020.mgt is001077.sol is001077.chm 07500020.gw               
07500021.hru 07500021.mgt is001078.sol is001078.chm 07500021.gw               
07500022.hru 07500022.mgt is001079.sol is001079.chm 07500022.gw               
07500023.hru 07500023.mgt is001080.sol is001080.chm 07500023.gw               
07500024.hru 07500024.mgt is001081.sol is001081.chm 07500024.gw               
