.sub file Subbasin:51 Fri Feb 23 14:09:24 2007 AVSWATX2003 - SWAT interface MDL
    43.88299
Written by i_SWAT 2016-03-10 12:25:02
!!Climate
  42.082
 338.500
       7
       7
       7
       7
       7
is00051.wgn
0


   0.000   0.000   0.000   0.000   0.000   0.000   0.000   0.000   0.000   0.000

   0.000   0.000   0.000   0.000   0.000   0.000   0.000   0.000   0.000   0.000

   0.000   0.000   0.000   0.000   0.000   0.000   0.000   0.000   0.000   0.000
   0.000
   0.000
   0.000

  18.607
   0.003
  12.473
   0.500
   0.014

000000051.PND

000000051.WUS

   0.000

   0.000   0.000   0.000   0.000   0.000   0.000

   0.000   0.000   0.000   0.000   0.000   0.000

   0.000   0.000   0.000   0.000   0.000   0.000

   0.000   0.000   0.000   0.000   0.000   0.000

   0.000   0.000   0.000   0.000   0.000   0.000

   0.000   0.000   0.000   0.000   0.000   0.000

   0.000   0.000   0.000   0.000   0.000   0.000

   0.000   0.000   0.000   0.000   0.000   0.000

      30








05100001.hru 05100001.mgt is001949.sol is001949.chm 05100001.gw               
05100002.hru 05100002.mgt is001950.sol is001950.chm 05100002.gw               
05100003.hru 05100003.mgt is001951.sol is001951.chm 05100003.gw               
05100004.hru 05100004.mgt is001952.sol is001952.chm 05100004.gw               
05100005.hru 05100005.mgt is001953.sol is001953.chm 05100005.gw               
05100006.hru 05100006.mgt is001954.sol is001954.chm 05100006.gw               
05100007.hru 05100007.mgt is001955.sol is001955.chm 05100007.gw               
05100008.hru 05100008.mgt is001956.sol is001956.chm 05100008.gw               
05100009.hru 05100009.mgt is001957.sol is001957.chm 05100009.gw               
05100010.hru 05100010.mgt is001958.sol is001958.chm 05100010.gw               
05100011.hru 05100011.mgt is001959.sol is001959.chm 05100011.gw               
05100012.hru 05100012.mgt is001960.sol is001960.chm 05100012.gw               
05100013.hru 05100013.mgt is001961.sol is001961.chm 05100013.gw               
05100014.hru 05100014.mgt is001962.sol is001962.chm 05100014.gw               
05100015.hru 05100015.mgt is001963.sol is001963.chm 05100015.gw               
05100016.hru 05100016.mgt is001964.sol is001964.chm 05100016.gw               
05100017.hru 05100017.mgt is001965.sol is001965.chm 05100017.gw               
05100018.hru 05100018.mgt is001966.sol is001966.chm 05100018.gw               
05100019.hru 05100019.mgt is001967.sol is001967.chm 05100019.gw               
05100020.hru 05100020.mgt is001968.sol is001968.chm 05100020.gw               
05100021.hru 05100021.mgt is001969.sol is001969.chm 05100021.gw               
05100022.hru 05100022.mgt is001970.sol is001970.chm 05100022.gw               
05100023.hru 05100023.mgt is001971.sol is001971.chm 05100023.gw               
05100024.hru 05100024.mgt is001972.sol is001972.chm 05100024.gw               
05100025.hru 05100025.mgt is001973.sol is001973.chm 05100025.gw               
05100026.hru 05100026.mgt is001974.sol is001974.chm 05100026.gw               
05100027.hru 05100027.mgt is001975.sol is001975.chm 05100027.gw               
05100028.hru 05100028.mgt is001976.sol is001976.chm 05100028.gw               
05100029.hru 05100029.mgt is001977.sol is001977.chm 05100029.gw               
05100030.hru 05100030.mgt is001978.sol is001978.chm 05100030.gw               
