.sub file Subbasin:4 Fri Feb 23 14:09:19 2007 AVSWATX2003 - SWAT interface MDL
   143.62897
Written by i_SWAT 2016-03-10 12:24:25
!!Climate
  42.820
 402.240
       2
       2
       2
       2
       2
is00004.wgn
0


   0.000   0.000   0.000   0.000   0.000   0.000   0.000   0.000   0.000   0.000

   0.000   0.000   0.000   0.000   0.000   0.000   0.000   0.000   0.000   0.000

   0.000   0.000   0.000   0.000   0.000   0.000   0.000   0.000   0.000   0.000
   0.000
   0.000
   0.000

  37.659
   0.001
  25.406
   0.500
   0.014

000000004.PND

000000004.WUS

   0.000

   0.000   0.000   0.000   0.000   0.000   0.000

   0.000   0.000   0.000   0.000   0.000   0.000

   0.000   0.000   0.000   0.000   0.000   0.000

   0.000   0.000   0.000   0.000   0.000   0.000

   0.000   0.000   0.000   0.000   0.000   0.000

   0.000   0.000   0.000   0.000   0.000   0.000

   0.000   0.000   0.000   0.000   0.000   0.000

   0.000   0.000   0.000   0.000   0.000   0.000

      18








00400001.hru 00400001.mgt is002747.sol is002747.chm 00400001.gw               
00400002.hru 00400002.mgt is002748.sol is002748.chm 00400002.gw               
00400003.hru 00400003.mgt is002749.sol is002749.chm 00400003.gw               
00400004.hru 00400004.mgt is002750.sol is002750.chm 00400004.gw               
00400005.hru 00400005.mgt is002751.sol is002751.chm 00400005.gw               
00400006.hru 00400006.mgt is002752.sol is002752.chm 00400006.gw               
00400007.hru 00400007.mgt is002753.sol is002753.chm 00400007.gw               
00400008.hru 00400008.mgt is002754.sol is002754.chm 00400008.gw               
00400009.hru 00400009.mgt is002755.sol is002755.chm 00400009.gw               
00400010.hru 00400010.mgt is002756.sol is002756.chm 00400010.gw               
00400011.hru 00400011.mgt is002757.sol is002757.chm 00400011.gw               
00400012.hru 00400012.mgt is002758.sol is002758.chm 00400012.gw               
00400013.hru 00400013.mgt is002759.sol is002759.chm 00400013.gw               
00400014.hru 00400014.mgt is002760.sol is002760.chm 00400014.gw               
00400015.hru 00400015.mgt is002761.sol is002761.chm 00400015.gw               
00400016.hru 00400016.mgt is002762.sol is002762.chm 00400016.gw               
00400017.hru 00400017.mgt is002763.sol is002763.chm 00400017.gw               
00400018.hru 00400018.mgt is002764.sol is002764.chm 00400018.gw               
