.sub file Subbasin:78 Fri Feb 23 14:09:27 2007 AVSWATX2003 - SWAT interface MDL
    42.21099
Written by i_SWAT 2016-03-10 12:26:20
!!Climate
  41.604
 282.630
       9
       9
       9
       9
       9
is00078.wgn
0


   0.000   0.000   0.000   0.000   0.000   0.000   0.000   0.000   0.000   0.000

   0.000   0.000   0.000   0.000   0.000   0.000   0.000   0.000   0.000   0.000

   0.000   0.000   0.000   0.000   0.000   0.000   0.000   0.000   0.000   0.000
   0.000
   0.000
   0.000

  15.358
   0.004
  12.185
   0.500
   0.014

000000078.PND

000000078.WUS

   0.000

   0.000   0.000   0.000   0.000   0.000   0.000

   0.000   0.000   0.000   0.000   0.000   0.000

   0.000   0.000   0.000   0.000   0.000   0.000

   0.000   0.000   0.000   0.000   0.000   0.000

   0.000   0.000   0.000   0.000   0.000   0.000

   0.000   0.000   0.000   0.000   0.000   0.000

   0.000   0.000   0.000   0.000   0.000   0.000

   0.000   0.000   0.000   0.000   0.000   0.000

      55








07800001.hru 07800001.mgt is000281.sol is000281.chm 07800001.gw               
07800002.hru 07800002.mgt is000282.sol is000282.chm 07800002.gw               
07800003.hru 07800003.mgt is000283.sol is000283.chm 07800003.gw               
07800004.hru 07800004.mgt is000284.sol is000284.chm 07800004.gw               
07800005.hru 07800005.mgt is000285.sol is000285.chm 07800005.gw               
07800006.hru 07800006.mgt is000286.sol is000286.chm 07800006.gw               
07800007.hru 07800007.mgt is000287.sol is000287.chm 07800007.gw               
07800008.hru 07800008.mgt is000288.sol is000288.chm 07800008.gw               
07800009.hru 07800009.mgt is000289.sol is000289.chm 07800009.gw               
07800010.hru 07800010.mgt is000290.sol is000290.chm 07800010.gw               
07800011.hru 07800011.mgt is000291.sol is000291.chm 07800011.gw               
07800012.hru 07800012.mgt is000292.sol is000292.chm 07800012.gw               
07800013.hru 07800013.mgt is000293.sol is000293.chm 07800013.gw               
07800014.hru 07800014.mgt is000294.sol is000294.chm 07800014.gw               
07800015.hru 07800015.mgt is000295.sol is000295.chm 07800015.gw               
07800016.hru 07800016.mgt is000296.sol is000296.chm 07800016.gw               
07800017.hru 07800017.mgt is000297.sol is000297.chm 07800017.gw               
07800018.hru 07800018.mgt is000298.sol is000298.chm 07800018.gw               
07800019.hru 07800019.mgt is000299.sol is000299.chm 07800019.gw               
07800020.hru 07800020.mgt is000300.sol is000300.chm 07800020.gw               
07800021.hru 07800021.mgt is000301.sol is000301.chm 07800021.gw               
07800022.hru 07800022.mgt is000302.sol is000302.chm 07800022.gw               
07800023.hru 07800023.mgt is000303.sol is000303.chm 07800023.gw               
07800024.hru 07800024.mgt is000304.sol is000304.chm 07800024.gw               
07800025.hru 07800025.mgt is000305.sol is000305.chm 07800025.gw               
07800026.hru 07800026.mgt is000306.sol is000306.chm 07800026.gw               
07800027.hru 07800027.mgt is000307.sol is000307.chm 07800027.gw               
07800028.hru 07800028.mgt is000308.sol is000308.chm 07800028.gw               
07800029.hru 07800029.mgt is000309.sol is000309.chm 07800029.gw               
07800030.hru 07800030.mgt is000310.sol is000310.chm 07800030.gw               
07800031.hru 07800031.mgt is000311.sol is000311.chm 07800031.gw               
07800032.hru 07800032.mgt is000312.sol is000312.chm 07800032.gw               
07800033.hru 07800033.mgt is000313.sol is000313.chm 07800033.gw               
07800034.hru 07800034.mgt is000314.sol is000314.chm 07800034.gw               
07800035.hru 07800035.mgt is000315.sol is000315.chm 07800035.gw               
07800036.hru 07800036.mgt is000316.sol is000316.chm 07800036.gw               
07800037.hru 07800037.mgt is000317.sol is000317.chm 07800037.gw               
07800038.hru 07800038.mgt is000318.sol is000318.chm 07800038.gw               
07800039.hru 07800039.mgt is000319.sol is000319.chm 07800039.gw               
07800040.hru 07800040.mgt is000320.sol is000320.chm 07800040.gw               
07800041.hru 07800041.mgt is000321.sol is000321.chm 07800041.gw               
07800042.hru 07800042.mgt is000322.sol is000322.chm 07800042.gw               
07800043.hru 07800043.mgt is000323.sol is000323.chm 07800043.gw               
07800044.hru 07800044.mgt is000324.sol is000324.chm 07800044.gw               
07800045.hru 07800045.mgt is000325.sol is000325.chm 07800045.gw               
07800046.hru 07800046.mgt is000326.sol is000326.chm 07800046.gw               
07800047.hru 07800047.mgt is000327.sol is000327.chm 07800047.gw               
07800048.hru 07800048.mgt is000328.sol is000328.chm 07800048.gw               
07800049.hru 07800049.mgt is000329.sol is000329.chm 07800049.gw               
07800050.hru 07800050.mgt is000330.sol is000330.chm 07800050.gw               
07800051.hru 07800051.mgt is000331.sol is000331.chm 07800051.gw               
07800052.hru 07800052.mgt is000332.sol is000332.chm 07800052.gw               
07800053.hru 07800053.mgt is000333.sol is000333.chm 07800053.gw               
07800054.hru 07800054.mgt is000334.sol is000334.chm 07800054.gw               
07800055.hru 07800055.mgt is000335.sol is000335.chm 07800055.gw               
