.sub file Subbasin:103 Fri Feb 23 14:09:30 2007 AVSWATX2003 - SWAT interface MDL
   103.50498
Written by i_SWAT 2016-03-10 12:26:29
!!Climate
  41.947
 350.410
       7
       7
       7
       7
       7
is00103.wgn
0


   0.000   0.000   0.000   0.000   0.000   0.000   0.000   0.000   0.000   0.000

   0.000   0.000   0.000   0.000   0.000   0.000   0.000   0.000   0.000   0.000

   0.000   0.000   0.000   0.000   0.000   0.000   0.000   0.000   0.000   0.000
   0.000
   0.000
   0.000

  33.353
   0.002
  20.872
   0.500
   0.014

000000103.PND

000000103.WUS

   0.000

   0.000   0.000   0.000   0.000   0.000   0.000

   0.000   0.000   0.000   0.000   0.000   0.000

   0.000   0.000   0.000   0.000   0.000   0.000

   0.000   0.000   0.000   0.000   0.000   0.000

   0.000   0.000   0.000   0.000   0.000   0.000

   0.000   0.000   0.000   0.000   0.000   0.000

   0.000   0.000   0.000   0.000   0.000   0.000

   0.000   0.000   0.000   0.000   0.000   0.000

      25








10300001.hru 10300001.mgt is001802.sol is001802.chm 10300001.gw               
10300002.hru 10300002.mgt is001803.sol is001803.chm 10300002.gw               
10300003.hru 10300003.mgt is001804.sol is001804.chm 10300003.gw               
10300004.hru 10300004.mgt is001805.sol is001805.chm 10300004.gw               
10300005.hru 10300005.mgt is001806.sol is001806.chm 10300005.gw               
10300006.hru 10300006.mgt is001807.sol is001807.chm 10300006.gw               
10300007.hru 10300007.mgt is001808.sol is001808.chm 10300007.gw               
10300008.hru 10300008.mgt is001809.sol is001809.chm 10300008.gw               
10300009.hru 10300009.mgt is001810.sol is001810.chm 10300009.gw               
10300010.hru 10300010.mgt is001811.sol is001811.chm 10300010.gw               
10300011.hru 10300011.mgt is001812.sol is001812.chm 10300011.gw               
10300012.hru 10300012.mgt is001813.sol is001813.chm 10300012.gw               
10300013.hru 10300013.mgt is001814.sol is001814.chm 10300013.gw               
10300014.hru 10300014.mgt is001815.sol is001815.chm 10300014.gw               
10300015.hru 10300015.mgt is001816.sol is001816.chm 10300015.gw               
10300016.hru 10300016.mgt is001817.sol is001817.chm 10300016.gw               
10300017.hru 10300017.mgt is001818.sol is001818.chm 10300017.gw               
10300018.hru 10300018.mgt is001819.sol is001819.chm 10300018.gw               
10300019.hru 10300019.mgt is001820.sol is001820.chm 10300019.gw               
10300020.hru 10300020.mgt is001821.sol is001821.chm 10300020.gw               
10300021.hru 10300021.mgt is001822.sol is001822.chm 10300021.gw               
10300022.hru 10300022.mgt is001823.sol is001823.chm 10300022.gw               
10300023.hru 10300023.mgt is001824.sol is001824.chm 10300023.gw               
10300024.hru 10300024.mgt is001825.sol is001825.chm 10300024.gw               
10300025.hru 10300025.mgt is001826.sol is001826.chm 10300025.gw               
