.sub file Subbasin:98 Fri Feb 23 14:09:30 2007 AVSWATX2003 - SWAT interface MDL
   112.97899
Written by i_SWAT 2016-03-10 12:26:27
!!Climate
  41.901
 397.710
       6
       6
       6
       6
       6
is00098.wgn
0


   0.000   0.000   0.000   0.000   0.000   0.000   0.000   0.000   0.000   0.000

   0.000   0.000   0.000   0.000   0.000   0.000   0.000   0.000   0.000   0.000

   0.000   0.000   0.000   0.000   0.000   0.000   0.000   0.000   0.000   0.000
   0.000
   0.000
   0.000

  23.922
   0.003
  21.998
   0.500
   0.014

000000098.PND

000000098.WUS

   0.000

   0.000   0.000   0.000   0.000   0.000   0.000

   0.000   0.000   0.000   0.000   0.000   0.000

   0.000   0.000   0.000   0.000   0.000   0.000

   0.000   0.000   0.000   0.000   0.000   0.000

   0.000   0.000   0.000   0.000   0.000   0.000

   0.000   0.000   0.000   0.000   0.000   0.000

   0.000   0.000   0.000   0.000   0.000   0.000

   0.000   0.000   0.000   0.000   0.000   0.000

      37








09800001.hru 09800001.mgt is000992.sol is000992.chm 09800001.gw               
09800002.hru 09800002.mgt is000993.sol is000993.chm 09800002.gw               
09800003.hru 09800003.mgt is000994.sol is000994.chm 09800003.gw               
09800004.hru 09800004.mgt is000995.sol is000995.chm 09800004.gw               
09800005.hru 09800005.mgt is000996.sol is000996.chm 09800005.gw               
09800006.hru 09800006.mgt is000997.sol is000997.chm 09800006.gw               
09800007.hru 09800007.mgt is000998.sol is000998.chm 09800007.gw               
09800008.hru 09800008.mgt is000999.sol is000999.chm 09800008.gw               
09800009.hru 09800009.mgt is001000.sol is001000.chm 09800009.gw               
09800010.hru 09800010.mgt is001001.sol is001001.chm 09800010.gw               
09800011.hru 09800011.mgt is001002.sol is001002.chm 09800011.gw               
09800012.hru 09800012.mgt is001003.sol is001003.chm 09800012.gw               
09800013.hru 09800013.mgt is001004.sol is001004.chm 09800013.gw               
09800014.hru 09800014.mgt is001005.sol is001005.chm 09800014.gw               
09800015.hru 09800015.mgt is001006.sol is001006.chm 09800015.gw               
09800016.hru 09800016.mgt is001007.sol is001007.chm 09800016.gw               
09800017.hru 09800017.mgt is001008.sol is001008.chm 09800017.gw               
09800018.hru 09800018.mgt is001009.sol is001009.chm 09800018.gw               
09800019.hru 09800019.mgt is001010.sol is001010.chm 09800019.gw               
09800020.hru 09800020.mgt is001011.sol is001011.chm 09800020.gw               
09800021.hru 09800021.mgt is001012.sol is001012.chm 09800021.gw               
09800022.hru 09800022.mgt is001013.sol is001013.chm 09800022.gw               
09800023.hru 09800023.mgt is001014.sol is001014.chm 09800023.gw               
09800024.hru 09800024.mgt is001015.sol is001015.chm 09800024.gw               
09800025.hru 09800025.mgt is001016.sol is001016.chm 09800025.gw               
09800026.hru 09800026.mgt is001017.sol is001017.chm 09800026.gw               
09800027.hru 09800027.mgt is001018.sol is001018.chm 09800027.gw               
09800028.hru 09800028.mgt is001019.sol is001019.chm 09800028.gw               
09800029.hru 09800029.mgt is001020.sol is001020.chm 09800029.gw               
09800030.hru 09800030.mgt is001021.sol is001021.chm 09800030.gw               
09800031.hru 09800031.mgt is001022.sol is001022.chm 09800031.gw               
09800032.hru 09800032.mgt is001023.sol is001023.chm 09800032.gw               
09800033.hru 09800033.mgt is001024.sol is001024.chm 09800033.gw               
09800034.hru 09800034.mgt is001025.sol is001025.chm 09800034.gw               
09800035.hru 09800035.mgt is001026.sol is001026.chm 09800035.gw               
09800036.hru 09800036.mgt is001027.sol is001027.chm 09800036.gw               
09800037.hru 09800037.mgt is001028.sol is001028.chm 09800037.gw               
