10 10 .hru file Subbasin:9 HRU:10 Luse:CORN Soil:IA021138B Wed Jan 10 14:16:22 2007 AVSWATX2003 - SWAT interface MDL
0.0620305
     121.951
       0.0140
       0.140
       0
       0.000
       0.000
       0.000
       0.900
       0.000
       0.000
       2.000
       1.300
       0.000
       0.000
       0.000
*Line 18
       0.000
       0.000
       0.000
       0.000
       0.000
       0.000
       0.000
       0.000
       0.000
