27 27 .hru file Subbasin:12 HRU:27 Luse:ALFA Soil:IA02177B Wed Jan 10 14:16:24 2007 AVSWATX2003 - SWAT interface MDL
0.0040738
     121.951
       0.0180
       0.060
       0
       0.000
       0.000
       0.000
       0.900
       0.000
       0.000
       2.000
       1.300
       0.000
       0.000
       0.000
*Line 18
       0.000
       0.000
       0.000
       0.000
       0.000
       0.000
       0.000
       0.000
       0.000
