7 7 .hru file Subbasin:15 HRU:7 Luse:CORN Soil:IA021107 Wed Jan 10 14:16:25 2007 AVSWATX2003 - SWAT interface MDL
0.0430688
      91.463
       0.0220
       0.140
       0
       0.000
       0.000
       0.000
       0.900
       0.000
       0.000
       2.000
       1.300
       0.000
       0.000
       0.000
*Line 18
       0.000
       0.000
       0.000
       0.000
       0.000
    1200.000
      48.000
      96.000
    1200.000
