20 20 .hru file Subbasin:22 HRU:20 Luse:INDN Soil:IA161236B Wed Jan 10 14:16:27 2007 AVSWATX2003 - SWAT interface MDL
0.0022995
      91.463
       0.0200
       0.100
       0
       0.000
       0.000
       0.000
       0.900
       0.000
       0.000
       2.000
       1.300
       0.000
       0.000
       0.000
*Line 18
       0.000
       0.000
       0.000
       0.000
       0.000
       0.000
       0.000
       0.000
       0.000
