15 15 .hru file Subbasin:27 HRU:15 Luse:ALFA Soil:IA161108 Wed Jan 10 14:16:30 2007 AVSWATX2003 - SWAT interface MDL
0.0013528
      91.463
       0.0220
       0.060
       0
       0.000
       0.000
       0.000
       0.900
       0.000
       0.000
       2.000
       1.300
       0.000
       0.000
       0.000
*Line 18
       0.000
       0.000
       0.000
       0.000
       0.000
       0.000
       0.000
       0.000
       0.000
