16 16 .hru file Subbasin:29 HRU:16 Luse:FESC Soil:IA16155 Wed Jan 10 14:16:31 2007 AVSWATX2003 - SWAT interface MDL
0.0022942
     121.951
       0.0190
       0.100
       0
       0.000
       0.000
       0.000
       0.900
       0.000
       0.000
       2.000
       1.300
       0.000
       0.000
       0.000
*Line 18
       0.000
       0.000
       0.000
       0.000
       0.000
       0.000
       0.000
       0.000
       0.000
