17 17 .hru file Subbasin:32 HRU:17 Luse:FRSD Soil:IA16162G Wed Jan 10 14:16:32 2007 AVSWATX2003 - SWAT interface MDL
0.0132337
      91.463
       0.0230
       0.100
       0
       0.000
       0.000
       0.000
       0.900
       0.000
       0.000
       2.000
       1.300
       0.000
       0.000
       0.000
*Line 18
       0.000
       0.000
       0.000
       0.000
       0.000
       0.000
       0.000
       0.000
       0.000
