25 25 .hru file Subbasin:33 HRU:25 Luse:BROS Soil:IA025507 Wed Jan 10 14:16:33 2007 AVSWATX2003 - SWAT interface MDL
0.0054308
     121.951
       0.0150
       0.100
       0
       0.000
       0.000
       0.000
       0.900
       0.000
       0.000
       2.000
       1.300
       0.000
       0.000
       0.000
*Line 18
       0.000
       0.000
       0.000
       0.000
       0.000
       0.000
       0.000
       0.000
       0.000
