20 20 .hru file Subbasin:33 HRU:20 Luse:INDN Soil:IA02562E Wed Jan 10 14:16:33 2007 AVSWATX2003 - SWAT interface MDL
0.0012838
     121.951
       0.0150
       0.100
       0
       0.000
       0.000
       0.000
       0.900
       0.000
       0.000
       2.000
       1.300
       0.000
       0.000
       0.000
*Line 18
       0.000
       0.000
       0.000
       0.000
       0.000
       0.000
       0.000
       0.000
       0.000
