33 33 .hru file Subbasin:35 HRU:33 Luse:URLD Soil:IA025107 Wed Jan 10 14:16:34 2007 AVSWATX2003 - SWAT interface MDL
0.0083254
      91.463
       0.0310
       0.100
       0
       0.000
       0.000
       0.000
       0.900
       0.000
       0.000
       2.000
       1.300
       0.000
       0.000
       0.000
*Line 18
       0.000
       0.000
       0.000
       0.000
       0.000
       0.000
       0.000
       0.000
       0.000
