23 23 .hru file Subbasin:40 HRU:23 Luse:FESC Soil:IA027201B Wed Jan 10 14:16:36 2007 AVSWATX2003 - SWAT interface MDL
0.0148334
      91.463
       0.0280
       0.100
       0
       0.000
       0.000
       0.000
       0.900
       0.000
       0.000
       2.000
       1.300
       0.000
       0.000
       0.000
*Line 18
       0.000
       0.000
       0.000
       0.000
       0.000
       0.000
       0.000
       0.000
       0.000
