19 19 .hru file Subbasin:43 HRU:19 Luse:BROS Soil:IA027135 Wed Jan 10 14:16:38 2007 AVSWATX2003 - SWAT interface MDL
0.0147158
      91.463
       0.0210
       0.100
       0
       0.000
       0.000
       0.000
       0.900
       0.000
       0.000
       2.000
       1.300
       0.000
       0.000
       0.000
*Line 18
       0.000
       0.000
       0.000
       0.000
       0.000
       0.000
       0.000
       0.000
       0.000
