12 12 .hru file Subbasin:43 HRU:12 Luse:ALFA Soil:IA027308 Wed Jan 10 14:16:38 2007 AVSWATX2003 - SWAT interface MDL
0.0038487
      91.463
       0.0210
       0.060
       0
       0.000
       0.000
       0.000
       0.900
       0.000
       0.000
       2.000
       1.300
       0.000
       0.000
       0.000
*Line 18
       0.000
       0.000
       0.000
       0.000
       0.000
       0.000
       0.000
       0.000
       0.000
