35 35 .hru file Subbasin:45 HRU:35 Luse:INDN Soil:IA02711B Wed Jan 10 14:16:39 2007 AVSWATX2003 - SWAT interface MDL
0.0017920
      91.463
       0.0490
       0.100
       0
       0.000
       0.000
       0.000
       0.900
       0.000
       0.000
       2.000
       1.300
       0.000
       0.000
       0.000
*Line 18
       0.000
       0.000
       0.000
       0.000
       0.000
       0.000
       0.000
       0.000
       0.000
