30 30 .hru file Subbasin:45 HRU:30 Luse:URLD Soil:IA027138B Wed Jan 10 14:16:39 2007 AVSWATX2003 - SWAT interface MDL
0.0158913
      91.463
       0.0490
       0.100
       0
       0.000
       0.000
       0.000
       0.900
       0.000
       0.000
       2.000
       1.300
       0.000
       0.000
       0.000
*Line 18
       0.000
       0.000
       0.000
       0.000
       0.000
       0.000
       0.000
       0.000
       0.000
