18 18 .hru file Subbasin:52 HRU:18 Luse:ALFA Soil:IA073236C2 Wed Jan 10 14:16:42 2007 AVSWATX2003 - SWAT interface MDL
0.0024075
      91.463
       0.0400
       0.060
       0
       0.000
       0.000
       0.000
       0.900
       0.000
       0.000
       2.000
       1.300
       0.000
       0.000
       0.000
*Line 18
       0.000
       0.000
       0.000
       0.000
       0.000
       0.000
       0.000
       0.000
       0.000
