33 33 .hru file Subbasin:53 HRU:33 Luse:INDN Soil:IA07327C Wed Jan 10 14:16:43 2007 AVSWATX2003 - SWAT interface MDL
0.0017717
      91.463
       0.0310
       0.100
       0
       0.000
       0.000
       0.000
       0.900
       0.000
       0.000
       2.000
       1.300
       0.000
       0.000
       0.000
*Line 18
       0.000
       0.000
       0.000
       0.000
       0.000
       0.000
       0.000
       0.000
       0.000
