11 11 .hru file Subbasin:56 HRU:11 Luse:ALFA Soil:IA07355 Wed Jan 10 14:16:45 2007 AVSWATX2003 - SWAT interface MDL
0.0016482
     121.951
       0.0190
       0.060
       0
       0.000
       0.000
       0.000
       0.900
       0.000
       0.000
       2.000
       1.300
       0.000
       0.000
       0.000
*Line 18
       0.000
       0.000
       0.000
       0.000
       0.000
       0.000
       0.000
       0.000
       0.000
