29 29 .hru file Subbasin:58 HRU:29 Luse:INDN Soil:IA04962E Wed Jan 10 14:16:46 2007 AVSWATX2003 - SWAT interface MDL
0.0024706
      91.463
       0.0200
       0.100
       0
       0.000
       0.000
       0.000
       0.900
       0.000
       0.000
       2.000
       1.300
       0.000
       0.000
       0.000
*Line 18
       0.000
       0.000
       0.000
       0.000
       0.000
       0.000
       0.000
       0.000
       0.000
