28 28 .hru file Subbasin:60 HRU:28 Luse:BROS Soil:IA077138B Wed Jan 10 14:16:47 2007 AVSWATX2003 - SWAT interface MDL
0.0314489
      91.463
       0.0290
       0.100
       0
       0.000
       0.000
       0.000
       0.900
       0.000
       0.000
       2.000
       1.300
       0.000
       0.000
       0.000
*Line 18
       0.000
       0.000
       0.000
       0.000
       0.000
       0.000
       0.000
       0.000
       0.000
