16 16 .hru file Subbasin:61 HRU:16 Luse:FRSD Soil:IA077179F2 Wed Jan 10 14:16:48 2007 AVSWATX2003 - SWAT interface MDL
0.0456736
      60.976
       0.0930
       0.100
       0
       0.000
       0.000
       0.000
       0.900
       0.000
       0.000
       2.000
       1.300
       0.000
       0.000
       0.000
*Line 18
       0.000
       0.000
       0.000
       0.000
       0.000
       0.000
       0.000
       0.000
       0.000
