21 21 .hru file Subbasin:62 HRU:21 Luse:ALFA Soil:IA0491314 Wed Jan 10 14:16:48 2007 AVSWATX2003 - SWAT interface MDL
0.0017774
     121.951
       0.0180
       0.060
       0
       0.000
       0.000
       0.000
       0.900
       0.000
       0.000
       2.000
       1.300
       0.000
       0.000
       0.000
*Line 18
       0.000
       0.000
       0.000
       0.000
       0.000
       0.000
       0.000
       0.000
       0.000
