5 5 .hru file Subbasin:62 HRU:5 Luse:SOYB Soil:IA073138B Wed Jan 10 14:16:48 2007 AVSWATX2003 - SWAT interface MDL
0.0290972
     121.951
       0.0180
       0.140
       0
       0.000
       0.000
       0.000
       0.900
       0.000
       0.000
       2.000
       1.300
       0.000
       0.000
       0.000
*Line 18
       0.000
       0.000
       0.000
       0.000
       0.000
       0.000
       0.000
       0.000
       0.000
