20 20 .hru file Subbasin:63 HRU:20 Luse:INDN Soil:IA04962D2 Wed Jan 10 14:16:49 2007 AVSWATX2003 - SWAT interface MDL
0.0010583
     121.951
       0.0150
       0.100
       0
       0.000
       0.000
       0.000
       0.900
       0.000
       0.000
       2.000
       1.300
       0.000
       0.000
       0.000
*Line 18
       0.000
       0.000
       0.000
       0.000
       0.000
       0.000
       0.000
       0.000
       0.000
