43 43 .hru file Subbasin:64 HRU:43 Luse:BROS Soil:IA077201B Wed Jan 10 14:16:50 2007 AVSWATX2003 - SWAT interface MDL
0.0231989
      60.976
       0.0820
       0.100
       0
       0.000
       0.000
       0.000
       0.900
       0.000
       0.000
       2.000
       1.300
       0.000
       0.000
       0.000
*Line 18
       0.000
       0.000
       0.000
       0.000
       0.000
       0.000
       0.000
       0.000
       0.000
