21 21 .hru file Subbasin:64 HRU:21 Luse:ALFA Soil:IA077370C2 Wed Jan 10 14:16:49 2007 AVSWATX2003 - SWAT interface MDL
0.0026152
      60.976
       0.0820
       0.060
       0
       0.000
       0.000
       0.000
       0.900
       0.000
       0.000
       2.000
       1.300
       0.000
       0.000
       0.000
*Line 18
       0.000
       0.000
       0.000
       0.000
       0.000
       0.000
       0.000
       0.000
       0.000
