19 19 .hru file Subbasin:67 HRU:19 Luse:FRSD Soil:IA07776C2 Wed Jan 10 14:16:52 2007 AVSWATX2003 - SWAT interface MDL
0.0230509
      60.976
       0.0960
       0.100
       0
       0.000
       0.000
       0.000
       0.900
       0.000
       0.000
       2.000
       1.300
       0.000
       0.000
       0.000
*Line 18
       0.000
       0.000
       0.000
       0.000
       0.000
       0.000
       0.000
       0.000
       0.000
