13 13 .hru file Subbasin:69 HRU:13 Luse:INDN Soil:IA049507 Wed Jan 10 14:16:53 2007 AVSWATX2003 - SWAT interface MDL
0.0040917
     121.951
       0.0180
       0.100
       0
       0.000
       0.000
       0.000
       0.900
       0.000
       0.000
       2.000
       1.300
       0.000
       0.000
       0.000
*Line 18
       0.000
       0.000
       0.000
       0.000
       0.000
       0.000
       0.000
       0.000
       0.000
