38 38 .hru file Subbasin:72 HRU:38 Luse:BROS Soil:IA049138B Wed Jan 10 14:16:55 2007 AVSWATX2003 - SWAT interface MDL
0.0308669
      91.463
       0.0270
       0.100
       0
       0.000
       0.000
       0.000
       0.900
       0.000
       0.000
       2.000
       1.300
       0.000
       0.000
       0.000
*Line 18
       0.000
       0.000
       0.000
       0.000
       0.000
       0.000
       0.000
       0.000
       0.000
