7 7 .hru file Subbasin:73 HRU:7 Luse:CORN Soil:IA07776C2 Wed Jan 10 14:16:55 2007 AVSWATX2003 - SWAT interface MDL
0.0350060
      60.976
       0.0940
       0.140
       0
       0.000
       0.000
       0.000
       0.900
       0.000
       0.000
       2.000
       1.300
       0.000
       0.000
       0.000
*Line 18
       0.000
       0.000
       0.000
       0.000
       0.000
       0.000
       0.000
       0.000
       0.000
