3 3 .hru file Subbasin:77 HRU:3 Luse:SOYB Soil:IA153507 Wed Jan 10 14:16:58 2007 AVSWATX2003 - SWAT interface MDL
0.0122336
      91.463
       0.0380
       0.140
       0
       0.000
       0.000
       0.000
       0.900
       0.000
       0.000
       2.000
       1.300
       0.000
       0.000
       0.000
*Line 18
       0.000
       0.000
       0.000
       0.000
       0.000
       0.000
       0.000
       0.000
       0.000
