39 39 .hru file Subbasin:79 HRU:39 Luse:INDN Soil:IA04976C2 Wed Jan 10 14:17:00 2007 AVSWATX2003 - SWAT interface MDL
0.0082054
      60.976
       0.0600
       0.100
       0
       0.000
       0.000
       0.000
       0.900
       0.000
       0.000
       2.000
       1.300
       0.000
       0.000
       0.000
*Line 18
       0.000
       0.000
       0.000
       0.000
       0.000
       0.000
       0.000
       0.000
       0.000
