61 61 .hru file Subbasin:81 HRU:61 Luse:UTRN Soil:IA04955 Wed Jan 10 14:17:02 2007 AVSWATX2003 - SWAT interface MDL
0.0069889
      91.463
       0.0350
       0.100
       0
       0.000
       0.000
       0.000
       0.900
       0.000
       0.000
       2.000
       1.300
       0.000
       0.000
       0.000
*Line 18
       0.000
       0.000
       0.000
       0.000
       0.000
       0.000
       0.000
       0.000
       0.000
