52 52 .hru file Subbasin:82 HRU:52 Luse:UTRN Soil:IA049370B Wed Jan 10 14:17:03 2007 AVSWATX2003 - SWAT interface MDL
0.0052261
      60.976
       0.0640
       0.100
       0
       0.000
       0.000
       0.000
       0.900
       0.000
       0.000
       2.000
       1.300
       0.000
       0.000
       0.000
*Line 18
       0.000
       0.000
       0.000
       0.000
       0.000
       0.000
       0.000
       0.000
       0.000
