29 29 .hru file Subbasin:82 HRU:29 Luse:FESC Soil:IA049169C2 Wed Jan 10 14:17:03 2007 AVSWATX2003 - SWAT interface MDL
0.0231817
      60.976
       0.0640
       0.100
       0
       0.000
       0.000
       0.000
       0.900
       0.000
       0.000
       2.000
       1.300
       0.000
       0.000
       0.000
*Line 18
       0.000
       0.000
       0.000
       0.000
       0.000
       0.000
       0.000
       0.000
       0.000
