29 29 .hru file Subbasin:83 HRU:29 Luse:FRSD Soil:IA049993E Wed Jan 10 14:17:04 2007 AVSWATX2003 - SWAT interface MDL
0.0162369
      60.976
       0.0580
       0.100
       0
       0.000
       0.000
       0.000
       0.900
       0.000
       0.000
       2.000
       1.300
       0.000
       0.000
       0.000
*Line 18
       0.000
       0.000
       0.000
       0.000
       0.000
       0.000
       0.000
       0.000
       0.000
