61 61 .hru file Subbasin:84 HRU:61 Luse:UTRN Soil:IA049169C2 Wed Jan 10 14:17:05 2007 AVSWATX2003 - SWAT interface MDL
0.0058695
      91.463
       0.0330
       0.100
       0
       0.000
       0.000
       0.000
       0.900
       0.000
       0.000
       2.000
       1.300
       0.000
       0.000
       0.000
*Line 18
       0.000
       0.000
       0.000
       0.000
       0.000
       0.000
       0.000
       0.000
       0.000
