16 16 .hru file Subbasin:87 HRU:16 Luse:FRSD Soil:IA16162F Wed Jan 10 14:17:07 2007 AVSWATX2003 - SWAT interface MDL
0.0085445
      91.463
       0.0390
       0.100
       0
       0.000
       0.000
       0.000
       0.900
       0.000
       0.000
       2.000
       1.300
       0.000
       0.000
       0.000
*Line 18
       0.000
       0.000
       0.000
       0.000
       0.000
       0.000
       0.000
       0.000
       0.000
