28 28 .hru file Subbasin:94 HRU:28 Luse:BROS Soil:IA073138B Wed Jan 10 14:17:10 2007 AVSWATX2003 - SWAT interface MDL
0.0039532
     121.951
       0.0100
       0.100
       0
       0.000
       0.000
       0.000
       0.900
       0.000
       0.000
       2.000
       1.300
       0.000
       0.000
       0.000
*Line 18
       0.000
       0.000
       0.000
       0.000
       0.000
       0.000
       0.000
       0.000
       0.000
