16 16 .hru file Subbasin:95 HRU:16 Luse:ALFA Soil:IA02799C2 Wed Jan 10 14:17:10 2007 AVSWATX2003 - SWAT interface MDL
0.0034723
      60.976
       0.0510
       0.060
       0
       0.000
       0.000
       0.000
       0.900
       0.000
       0.000
       2.000
       1.300
       0.000
       0.000
       0.000
*Line 18
       0.000
       0.000
       0.000
       0.000
       0.000
       0.000
       0.000
       0.000
       0.000
