35 35 .hru file Subbasin:98 HRU:35 Luse:UTRN Soil:IA0279C2 Wed Jan 10 14:17:12 2007 AVSWATX2003 - SWAT interface MDL
0.0031029
      60.976
       0.0640
       0.100
       0
       0.000
       0.000
       0.000
       0.900
       0.000
       0.000
       2.000
       1.300
       0.000
       0.000
       0.000
*Line 18
       0.000
       0.000
       0.000
       0.000
       0.000
       0.000
       0.000
       0.000
       0.000
