26 26 .hru file Subbasin:99 HRU:26 Luse:URLD Soil:IA0279B Wed Jan 10 14:17:13 2007 AVSWATX2003 - SWAT interface MDL
0.0027382
      60.976
       0.0620
       0.100
       0
       0.000
       0.000
       0.000
       0.900
       0.000
       0.000
       2.000
       1.300
       0.000
       0.000
       0.000
*Line 18
       0.000
       0.000
       0.000
       0.000
       0.000
       0.000
       0.000
       0.000
       0.000
