12 12 .hru file Subbasin:104 HRU:12 Luse:CORN Soil:IA187138B Wed Jan 10 14:17:15 2007 AVSWATX2003 - SWAT interface MDL
0.0507122
     121.951
       0.0100
       0.140
       0
       0.000
       0.000
       0.000
       0.900
       0.000
       0.000
       2.000
       1.300
       0.000
       0.000
       0.000
*Line 18
       0.000
       0.000
       0.000
       0.000
       0.000
       0.000
       0.000
       0.000
       0.000
