22 22 .hru file Subbasin:107 HRU:22 Luse:FRSD Soil:IA04911B Wed Jan 10 14:17:17 2007 AVSWATX2003 - SWAT interface MDL
0.0310797
      60.976
       0.0730
       0.100
       0
       0.000
       0.000
       0.000
       0.900
       0.000
       0.000
       2.000
       1.300
       0.000
       0.000
       0.000
*Line 18
       0.000
       0.000
       0.000
       0.000
       0.000
       0.000
       0.000
       0.000
       0.000
