9 9 .hru file Subbasin:108 HRU:9 Luse:WATR Soil:IA0491220 Wed Jan 10 14:17:18 2007 AVSWATX2003 - SWAT interface MDL
0.0069285
      60.976
       0.0550
       0.010
       0
       0.000
       0.000
       0.000
       0.900
       0.000
       0.000
       2.000
       1.300
       0.000
       0.000
       0.000
*Line 18
       0.000
       0.000
       0.000
       0.000
       0.000
       0.000
       0.000
       0.000
       0.000
