5 5 .hru file Subbasin:109 HRU:5 Luse:SOYB Soil:IA049736B Wed Jan 10 14:17:19 2007 AVSWATX2003 - SWAT interface MDL
0.0130443
      91.463
       0.0440
       0.140
       0
       0.000
       0.000
       0.000
       0.900
       0.000
       0.000
       2.000
       1.300
       0.000
       0.000
       0.000
*Line 18
       0.000
       0.000
       0.000
       0.000
       0.000
       0.000
       0.000
       0.000
       0.000
