31 31 .hru file Subbasin:110 HRU:31 Luse:FESC Soil:IA04955 Wed Jan 10 14:17:20 2007 AVSWATX2003 - SWAT interface MDL
0.0039827
      91.463
       0.0220
       0.100
       0
       0.000
       0.000
       0.000
       0.900
       0.000
       0.000
       2.000
       1.300
       0.000
       0.000
       0.000
*Line 18
       0.000
       0.000
       0.000
       0.000
       0.000
       0.000
       0.000
       0.000
       0.000
